CaseB/case.raw
0,100.0,33,0,1,60.0
GRID OPTIMIZATION COMPETITION CHALLENGE 2
INPUT DATA FILES ARE RAW JSON CON
1,'23001010300',138.0,1,14,2,1,1.02092338,-61.54122,1.1,0.9,1.1,0.9
2,'23001010700',345.0,1,14,2,1,1.03248787,-59.992461,1.1,0.9,1.1,0.9
3,'23001010700',138.0,1,14,2,1,1.02274108,-61.437914,1.1,0.9,1.1,0.9
4,'23001010800',138.0,1,14,2,1,1.02129745,-61.523605,1.1,0.9,1.1,0.9
5,'23001020100',138.0,1,14,2,1,1.02058029,-61.529144,1.1,0.9,1.1,0.9
6,'23001020200',138.0,1,14,2,1,1.02079391,-61.573302,1.1,0.9,1.1,0.9
7,'23001020300',138.0,1,14,2,1,1.02026391,-61.425708,1.1,0.9,1.1,0.9
8,'23001020400',138.0,1,14,2,1,1.0202316,-61.495861,1.1,0.9,1.1,0.9
9,'23001020600',138.0,1,14,2,1,1.01849174,-61.925138,1.1,0.9,1.1,0.9
10,'23001020800',138.0,1,14,2,1,1.02085006,-61.120119,1.1,0.9,1.1,0.9
11,'23001020900',138.0,1,14,2,1,1.02108335,-61.709803,1.1,0.9,1.1,0.9
12,'23001030100',138.0,1,14,2,1,1.01777244,-62.198332,1.1,0.9,1.1,0.9
13,'23001030200',138.0,1,14,2,1,1.01722491,-62.267023,1.1,0.9,1.1,0.9
14,'23001040000',138.0,1,14,2,1,1.01846015,-62.371279,1.1,0.9,1.1,0.9
15,'23001042000',138.0,1,14,2,1,1.02355576,-62.11818,1.1,0.9,1.1,0.9
16,'23001046000',138.0,1,14,2,1,1.02191663,-61.897981,1.1,0.9,1.1,0.9
17,'23003950600',138.0,1,14,2,1,1.04378402,-84.599611,1.1,0.9,1.1,0.9
18,'23003950700',138.0,1,14,2,1,1.04804218,-84.017781,1.1,0.9,1.1,0.9
19,'23003950900',138.0,1,14,2,1,1.04654562,-83.802562,1.1,0.9,1.1,0.9
20,'23003952000',230.0,1,14,2,1,1.03851223,-82.253147,1.1,0.9,1.1,0.9
21,'23003952500',138.0,1,14,2,1,1.03902316,-82.51195,1.1,0.9,1.1,0.9
22,'23003952700',138.0,1,14,2,1,1.03971255,-82.358052,1.1,0.9,1.1,0.9
23,'23005000100',138.0,1,14,2,1,1.0199635,-61.60121,1.1,0.9,1.1,0.9
24,'23005001800',138.0,1,14,2,1,1.02063835,-61.692113,1.1,0.9,1.1,0.9
25,'23005002102',138.0,1,14,2,1,1.01874447,-61.876835,1.1,0.9,1.1,0.9
26,'23005002200',138.0,1,14,2,1,1.02023923,-61.732944,1.1,0.9,1.1,0.9
27,'23005002300',345.0,1,14,2,1,1.03285897,-60.739178,1.1,0.9,1.1,0.9
28,'23005002300',138.0,1,14,2,1,1.0215044,-61.605806,1.1,0.9,1.1,0.9
29,'23005002400',138.0,1,14,2,1,1.018121,-61.377876,1.1,0.9,1.1,0.9
30,'23005002501',345.0,1,14,2,1,1.03407741,-60.882401,1.1,0.9,1.1,0.9
31,'23005002600',138.0,1,14,2,1,0.99329203,-61.331124,1.1,0.9,1.1,0.9
32,'23005002800',138.0,1,14,2,1,0.99488086,-61.155567,1.1,0.9,1.1,0.9
33,'23005002900',138.0,1,14,2,1,0.99644268,-60.98079,1.1,0.9,1.1,0.9
34,'23005002900',230.0,1,14,2,1,1.00640607,-59.502784,1.1,0.9,1.1,0.9
35,'23005003000',138.0,1,14,2,1,1.00586069,-59.934575,1.1,0.9,1.1,0.9
36,'23005003100',138.0,1,14,2,1,1.00865436,-60.577037,1.1,0.9,1.1,0.9
37,'23005003400',138.0,1,14,2,1,1.00955129,-60.651834,1.1,0.9,1.1,0.9
38,'23005003500',138.0,1,14,2,1,1.00862205,-60.582316,1.1,0.9,1.1,0.9
39,'23005003701',138.0,1,14,2,1,1.011482,-60.762825,1.1,0.9,1.1,0.9
40,'23005004001',138.0,1,14,2,1,1.00908291,-59.843891,1.1,0.9,1.1,0.9
41,'23005004002',138.0,1,14,2,1,1.00805938,-60.047171,1.1,0.9,1.1,0.9
42,'23005004502',138.0,1,14,2,1,1.02018726,-62.6261,1.1,0.9,1.1,0.9
43,'23005004701',138.0,1,14,2,1,1.01891923,-62.22997,1.1,0.9,1.1,0.9
44,'23005004702',138.0,1,14,2,1,1.01992691,-62.108365,1.1,0.9,1.1,0.9
45,'23005004801',138.0,1,14,2,1,1.01757121,-62.38634,1.1,0.9,1.1,0.9
46,'23005011100',138.0,1,14,2,1,1.01763594,-64.15204,1.1,0.9,1.1,0.9
47,'23005011100',345.0,1,14,2,1,1.0314281,-62.259988,1.1,0.9,1.1,0.9
48,'23005011202',138.0,1,14,2,1,1.01647472,-64.281758,1.1,0.9,1.1,0.9
49,'23005011500',138.0,1,14,2,1,1.02065217,-61.89124,1.1,0.9,1.1,0.9
50,'23005017002',138.0,1,14,2,1,1.00408876,-60.499924,1.1,0.9,1.1,0.9
51,'23005017101',138.0,1,14,2,1,1.01897192,-63.231467,1.1,0.9,1.1,0.9
52,'23005017102',138.0,1,14,2,1,1.01841021,-63.576637,1.1,0.9,1.1,0.9
53,'23005017301',138.0,1,14,2,1,1.00533533,-59.911134,1.1,0.9,1.1,0.9
54,'23005017301',230.0,1,14,2,1,1.00699997,-59.260914,1.1,0.9,1.1,0.9
55,'23007971400',138.0,1,14,2,1,1.0351367,-61.679402,1.1,0.9,1.1,0.9
56,'23009965300',138.0,1,14,2,1,1.02026892,-67.153819,1.1,0.9,1.1,0.9
57,'23009965503',138.0,1,14,2,1,1.01074183,-70.488918,1.1,0.9,1.1,0.9
58,'23009965504',138.0,1,14,2,1,1.01324964,-70.202194,1.1,0.9,1.1,0.9
59,'23009965900',138.0,1,14,2,1,1.00384617,-69.018727,1.1,0.9,1.1,0.9
60,'23011010200',138.0,1,14,2,1,1.0112803,-63.87832,1.1,0.9,1.1,0.9
61,'23011010600',138.0,1,14,2,1,1.01936376,-66.925458,1.1,0.9,1.1,0.9
62,'23011019000',138.0,1,14,2,1,1.02187932,-67.839939,1.1,0.9,1.1,0.9
63,'23011021000',138.0,1,14,2,1,1.01749086,-80.039223,1.1,0.9,1.1,0.9
64,'23011022000',138.0,1,14,2,1,1.01579261,-80.412589,1.1,0.9,1.1,0.9
65,'23011023001',138.0,1,14,2,1,1.01474035,-80.679977,1.1,0.9,1.1,0.9
66,'23011023002',138.0,1,14,2,1,1.0145067,-80.785135,1.1,0.9,1.1,0.9
67,'23011024101',138.0,1,14,2,1,1.01554465,-81.818174,1.1,0.9,1.1,0.9
68,'23011024102',138.0,1,14,2,1,1.0145762,-81.931773,1.1,0.9,1.1,0.9
69,'23011024200',138.0,1,14,2,1,1.01359916,-82.042422,1.1,0.9,1.1,0.9
70,'23013970200',138.0,1,14,2,1,1.00567245,-67.66413,1.1,0.9,1.1,0.9
71,'23013970400',138.0,1,14,2,1,1.00455821,-67.439355,1.1,0.9,1.1,0.9
72,'23013970500',138.0,1,14,2,1,1.00418019,-67.724495,1.1,0.9,1.1,0.9
73,'23013970700',138.0,1,14,2,1,1.00320423,-67.72972,1.1,0.9,1.1,0.9
74,'23015975100',138.0,1,14,2,1,1.02054238,-67.491141,1.1,0.9,1.1,0.9
75,'23015975200',138.0,1,14,2,1,1.00593185,-66.882934,1.1,0.9,1.1,0.9
76,'23015975300',138.0,1,14,2,1,1.0071727,-66.498121,1.1,0.9,1.1,0.9
77,'23015975400',138.0,1,14,2,1,1.00863957,-66.076561,1.1,0.9,1.1,0.9
78,'23015975500',138.0,1,14,2,1,1.01021302,-65.651997,1.1,0.9,1.1,0.9
79,'23015975600',138.0,1,14,2,1,1.00741124,-66.353041,1.1,0.9,1.1,0.9
80,'23015975700',138.0,1,14,2,1,1.00822103,-66.102489,1.1,0.9,1.1,0.9
81,'23015975800',138.0,1,14,2,1,1.00903571,-65.852777,1.1,0.9,1.1,0.9
82,'23015976200',138.0,1,14,2,1,1.0101335,-65.580027,1.1,0.9,1.1,0.9
83,'23017965100',138.0,1,14,2,1,1.02381301,-65.782372,1.1,0.9,1.1,0.9
84,'23017965400',138.0,1,14,2,1,1.03295755,-61.011068,1.1,0.9,1.1,0.9
85,'23017965500',138.0,1,14,2,1,1.03656256,-59.010369,1.1,0.9,1.1,0.9
86,'23017965500',345.0,1,14,2,1,1.03594065,-57.171586,1.1,0.9,1.1,0.9
87,'23017965700',138.0,1,14,2,1,1.03165174,-61.681437,1.1,0.9,1.1,0.9
88,'23017965800',138.0,1,14,2,1,1.02795494,-61.741372,1.1,0.9,1.1,0.9
89,'23017966100',138.0,1,14,2,1,1.02458489,-61.730246,1.1,0.9,1.1,0.9
90,'23017966200',138.0,1,14,2,1,1.0222801,-61.699551,1.1,0.9,1.1,0.9
91,'23017966500',138.0,1,14,2,1,1.02192533,-61.422901,1.1,0.9,1.1,0.9
92,'23019000200',138.0,1,14,2,1,1.02272284,-69.089508,1.1,0.9,1.1,0.9
93,'23019000300',138.0,1,14,2,1,1.02311969,-68.999131,1.1,0.9,1.1,0.9
94,'23019000400',138.0,1,14,2,1,1.02280569,-69.102868,1.1,0.9,1.1,0.9
95,'23019000500',138.0,1,14,2,1,1.02295387,-69.104944,1.1,0.9,1.1,0.9
96,'23019000700',345.0,1,14,2,1,1.03472602,-66.343615,1.1,0.9,1.1,0.9
97,'23019000700',138.0,1,14,2,1,1.0233444,-69.095546,1.1,0.9,1.1,0.9
98,'23019002000',138.0,1,14,2,1,1.01853013,-70.817423,1.1,0.9,1.1,0.9
99,'23019005000',138.0,1,14,2,1,1.02399826,-69.115224,1.1,0.9,1.1,0.9
100,'23019007200',138.0,1,14,2,1,1.02209222,-71.327706,1.1,0.9,1.1,0.9
101,'23019009000',138.0,1,14,2,1,1.02058184,-69.297767,1.1,0.9,1.1,0.9
102,'23019010000',138.0,1,14,2,1,1.02218652,-69.232082,1.1,0.9,1.1,0.9
103,'23019011000',138.0,1,14,2,1,1.02137971,-69.303744,1.1,0.9,1.1,0.9
104,'23019012500',138.0,1,14,2,1,1.02113378,-69.262421,1.1,0.9,1.1,0.9
105,'23019015000',138.0,1,14,2,1,0.96219355,-87.607906,1.1,0.9,1.1,0.9
106,'23019020500',138.0,1,14,2,1,0.96177584,-87.765513,1.1,0.9,1.1,0.9
107,'23019027000',138.0,1,14,2,1,1.03401852,-78.775495,1.1,0.9,1.1,0.9
108,'23019029000',138.0,1,14,2,1,1.04450762,-80.005762,1.1,0.9,1.1,0.9
109,'23019030000',138.0,1,14,2,1,1.04091907,-79.946032,1.1,0.9,1.1,0.9
110,'23019031000',138.0,1,14,2,1,1.03851056,-80.171674,1.1,0.9,1.1,0.9
111,'23019031100',138.0,1,14,2,1,1.02175546,-69.147175,1.1,0.9,1.1,0.9
112,'23019031200',138.0,1,14,2,1,0.96169621,-87.764878,1.1,0.9,1.1,0.9
113,'23021960302',138.0,1,14,2,1,1.04539967,-80.04143,1.1,0.9,1.1,0.9
114,'23021960700',138.0,1,14,2,1,0.97417063,-86.351206,1.1,0.9,1.1,0.9
115,'23021960800',138.0,1,14,2,1,1.0287385,-81.663934,1.1,0.9,1.1,0.9
116,'23021960900',138.0,1,14,2,1,1.03264999,-81.207876,1.1,0.9,1.1,0.9
117,'23023970500',138.0,1,14,2,1,1.01454985,-64.718515,1.1,0.9,1.1,0.9
118,'23023970600',138.0,1,14,2,1,1.01428652,-64.703311,1.1,0.9,1.1,0.9
119,'23025965700',138.0,1,14,2,1,0.96067917,-87.431257,1.1,0.9,1.1,0.9
120,'23025965900',138.0,1,14,2,1,0.95917094,-87.14984,1.1,0.9,1.1,0.9
121,'23025966000',138.0,1,14,2,1,1.01240122,-78.208091,1.1,0.9,1.1,0.9
122,'23025966500',138.0,1,14,2,1,0.96190995,-85.802107,1.1,0.9,1.1,0.9
123,'23025966600',138.0,1,14,2,1,0.96009749,-86.520656,1.1,0.9,1.1,0.9
124,'23025966700',138.0,1,14,2,1,0.95989776,-86.507139,1.1,0.9,1.1,0.9
125,'23025966800',138.0,1,14,2,1,1.01914442,-81.388391,1.1,0.9,1.1,0.9
126,'23025966900',138.0,1,14,2,1,0.96002251,-86.353303,1.1,0.9,1.1,0.9
127,'23027042000',345.0,1,14,2,1,1.03051138,-65.631295,1.1,0.9,1.1,0.9
128,'23027042000',138.0,1,14,2,1,1.02274799,-66.253026,1.1,0.9,1.1,0.9
129,'23027043000',138.0,1,14,2,1,1.01391768,-67.076959,1.1,0.9,1.1,0.9
130,'23027044000',138.0,1,14,2,1,1.00933659,-67.430517,1.1,0.9,1.1,0.9
131,'23027046001',138.0,1,14,2,1,1.0244683,-68.425491,1.1,0.9,1.1,0.9
132,'23027046002',138.0,1,14,2,1,1.02194762,-69.036608,1.1,0.9,1.1,0.9
133,'23029955400',138.0,1,14,2,1,1.02963769,-84.265526,1.1,0.9,1.1,0.9
134,'23029955800',138.0,1,14,2,1,1.02561557,-85.188428,1.1,0.9,1.1,0.9
135,'23029956300',138.0,1,14,2,1,1.02374017,-85.425627,1.1,0.9,1.1,0.9
136,'23031005200',138.0,1,14,2,1,1.00262451,-60.330378,1.1,0.9,1.1,0.9
137,'23031005300',138.0,1,14,2,1,1.00265074,-60.374494,1.1,0.9,1.1,0.9
138,'23031020000',138.0,1,14,2,1,1.00630486,-60.731112,1.1,0.9,1.1,0.9
139,'23031021000',138.0,1,14,2,1,1.00542665,-61.21376,1.1,0.9,1.1,0.9
140,'23031023500',138.0,1,14,2,1,1.00485396,-62.605698,1.1,0.9,1.1,0.9
141,'23031024000',138.0,1,14,2,1,1.0045265,-61.907988,1.1,0.9,1.1,0.9
142,'23031025100',138.0,1,14,2,1,1.00413346,-60.215808,1.1,0.9,1.1,0.9
143,'23031025202',138.0,1,14,2,1,1.00220847,-60.445617,1.1,0.9,1.1,0.9
144,'23031025300',138.0,1,14,2,1,1.00295639,-60.408345,1.1,0.9,1.1,0.9
145,'23031027000',138.0,1,14,2,1,1.00424957,-60.326819,1.1,0.9,1.1,0.9
146,'23031028002',138.0,1,14,2,1,1.00590122,-60.197353,1.1,0.9,1.1,0.9
147,'23031030201',138.0,1,14,2,1,1.01580346,-60.194724,1.1,0.9,1.1,0.9
148,'23031030202',138.0,1,14,2,1,1.01670444,-60.090092,1.1,0.9,1.1,0.9
149,'23031030300',138.0,1,14,2,1,1.01913977,-59.8053,1.1,0.9,1.1,0.9
150,'23031034001',138.0,1,14,2,1,1.00927567,-59.867038,1.1,0.9,1.1,0.9
151,'23031036001',138.0,1,14,2,1,1.01924706,-58.813482,1.1,0.9,1.1,0.9
152,'23031037000',138.0,1,14,2,1,1.03798926,-57.637146,1.1,0.9,1.1,0.9
153,'23031038001',138.0,1,14,2,1,1.02381182,-58.317815,1.1,0.9,1.1,0.9
154,'25001011002',138.0,1,16,3,1,1.0316869,-53.634706,1.1,0.9,1.1,0.9
155,'25001012001',138.0,1,16,3,1,1.03415668,-53.370142,1.1,0.9,1.1,0.9
156,'25001012602',138.0,1,16,3,1,1.04052162,-52.728623,1.1,0.9,1.1,0.9
157,'25001013400',138.0,1,16,3,1,1.02593732,-52.198058,1.1,0.9,1.1,0.9
158,'25001013500',138.0,1,16,3,1,1.02256155,-52.420903,1.1,0.9,1.1,0.9
159,'25001013600',138.0,1,16,3,1,1.02064073,-52.515706,1.1,0.9,1.1,0.9
160,'25001013700',345.0,1,16,3,1,1.02440417,-50.352247,1.1,0.9,1.1,0.9
161,'25001013700',138.0,1,16,3,1,1.01890516,-51.325494,1.1,0.9,1.1,0.9
162,'25001013800',138.0,1,16,3,1,1.02512288,-51.813282,1.1,0.9,1.1,0.9
163,'25001014100',138.0,1,16,3,1,1.02065349,-52.327305,1.1,0.9,1.1,0.9
164,'25001014500',138.0,1,16,3,1,1.01560557,-53.16607,1.1,0.9,1.1,0.9
165,'25001014600',138.0,1,16,3,1,1.01510704,-53.231465,1.1,0.9,1.1,0.9
166,'25001014700',138.0,1,16,3,1,1.01472306,-53.280725,1.1,0.9,1.1,0.9
167,'25001014800',138.0,1,16,3,1,1.01443696,-53.316211,1.1,0.9,1.1,0.9
168,'25001014900',138.0,1,16,3,1,1.01030362,-53.268133,1.1,0.9,1.1,0.9
169,'25001015100',138.0,1,16,3,1,1.01657569,-53.036433,1.1,0.9,1.1,0.9
170,'25001015300',138.0,1,16,3,1,1.04100072,-52.674795,1.1,0.9,1.1,0.9
171,'25001015300',345.0,1,16,3,1,1.01414859,-50.917315,1.1,0.9,1.1,0.9
172,'25003900100',138.0,1,16,3,1,1.02743936,-35.420668,1.1,0.9,1.1,0.9
173,'25003900200',138.0,1,16,3,1,1.02729797,-35.438775,1.1,0.9,1.1,0.9
174,'25003900300',138.0,1,16,3,1,1.02722466,-35.448204,1.1,0.9,1.1,0.9
175,'25003900800',138.0,1,16,3,1,1.02637768,-35.86475,1.1,0.9,1.1,0.9
176,'25003913100',138.0,1,16,3,1,1.02508843,-36.562214,1.1,0.9,1.1,0.9
177,'25003914100',138.0,1,16,3,1,0.95606101,-49.324665,1.1,0.9,1.1,0.9
178,'25003920101',138.0,1,16,3,1,1.0125463,-43.613302,1.1,0.9,1.1,0.9
179,'25003921300',138.0,1,16,3,1,1.0172801,-43.059606,1.1,0.9,1.1,0.9
180,'25003921500',138.0,1,16,3,1,1.01429915,-43.411043,1.1,0.9,1.1,0.9
181,'25003935300',138.0,1,16,3,1,1.01578689,-43.236515,1.1,0.9,1.1,0.9
182,'25005600202',138.0,1,16,3,1,1.01389933,-50.055212,1.1,0.9,1.1,0.9
183,'25005610100',138.0,1,16,3,1,1.00717676,-49.415357,1.1,0.9,1.1,0.9
184,'25005610202',138.0,1,16,3,1,1.00787652,-49.332984,1.1,0.9,1.1,0.9
185,'25005610203',138.0,1,16,3,1,1.01242399,-50.403545,1.1,0.9,1.1,0.9
186,'25005610204',138.0,1,16,3,1,1.01174462,-50.535258,1.1,0.9,1.1,0.9
187,'25005611101',138.0,1,16,3,1,1.01424468,-50.098266,1.1,0.9,1.1,0.9
188,'25005611102',138.0,1,16,3,1,1.0189774,-48.177784,1.1,0.9,1.1,0.9
189,'25005611202',138.0,1,16,3,1,1.00944459,-49.145885,1.1,0.9,1.1,0.9
190,'25005612100',138.0,1,16,3,1,1.01532185,-49.82594,1.1,0.9,1.1,0.9
191,'25005612200',138.0,1,16,3,1,1.0167495,-49.084502,1.1,0.9,1.1,0.9
192,'25005613100',345.0,1,16,3,1,1.02515519,-48.443475,1.1,0.9,1.1,0.9
193,'25005613100',138.0,1,16,3,1,1.01653945,-49.737058,1.1,0.9,1.1,0.9
194,'25005613300',138.0,1,16,3,1,1.02025104,-48.032674,1.1,0.9,1.1,0.9
195,'25005613400',138.0,1,16,3,1,1.02114797,-47.926423,1.1,0.9,1.1,0.9
196,'25005613700',138.0,1,16,3,1,1.02014232,-48.026499,1.1,0.9,1.1,0.9
197,'25005613902',138.0,1,16,3,1,1.02242422,-47.771965,1.1,0.9,1.1,0.9
198,'25005617101',138.0,1,16,3,1,1.01642621,-49.387807,1.1,0.9,1.1,0.9
199,'25005630102',138.0,1,16,3,1,1.0034641,-45.759426,1.1,0.9,1.1,0.9
200,'25005630300',138.0,1,16,3,1,1.00426221,-45.665934,1.1,0.9,1.1,0.9
...
0 / END OF BUS DATA BEGIN LOAD DATA
3065,'NJ',1,24,4,74.25,20.092,0.0,0.0,0.0,0.0,1,1,0
3120,'PA',1,24,1,74.25,22.325,0.0,0.0,0.0,0.0,1,1,0
3126,'PA',1,24,1,96.525,20.929,0.0,0.0,0.0,0.0,1,1,0
3365,'HO',1,52,1,74.25,27.225,0.0,0.0,0.0,0.0,1,1,0
10001,'10',1,14,2,6.633,1.824,0.0,0.0,0.0,0.0,1,1,0
10001,'20',1,14,2,6.633,1.824,0.0,0.0,0.0,0.0,1,1,0
10003,'10',1,14,2,30.997,8.524,0.0,0.0,0.0,0.0,1,1,0
10003,'1A',1,14,2,46.134,12.687,0.0,0.0,0.0,0.0,1,1,0
10004,'1A',1,14,2,3.683,1.013,0.0,0.0,0.0,0.0,1,1,0
10005,'10',1,14,2,7.524,2.069,0.0,0.0,0.0,0.0,1,1,0
10005,'20',1,14,2,7.524,2.069,0.0,0.0,0.0,0.0,1,1,0
10006,'1A',1,14,2,8.514,2.341,0.0,0.0,0.0,0.0,1,1,0
10007,'10',1,14,2,9.207,2.532,0.0,0.0,0.0,0.0,1,1,0
10007,'20',1,14,2,9.207,2.532,0.0,0.0,0.0,0.0,1,1,0
10008,'10',1,14,2,4.752,1.307,0.0,0.0,0.0,0.0,1,1,0
10008,'20',1,14,2,4.752,1.307,0.0,0.0,0.0,0.0,1,1,0
10009,'10',1,14,2,6.534,1.797,0.0,0.0,0.0,0.0,1,1,0
10009,'20',1,14,2,6.534,1.797,0.0,0.0,0.0,0.0,1,1,0
10010,'10',1,14,2,16.038,4.41,0.0,0.0,0.0,0.0,1,1,0
10010,'20',1,14,2,16.038,4.41,0.0,0.0,0.0,0.0,1,1,0
10011,'1A',1,14,2,4.792,1.318,0.0,0.0,0.0,0.0,1,1,0
10012,'1A',1,14,2,11.177,3.074,0.0,0.0,0.0,0.0,1,1,0
10013,'10',1,14,2,5.346,1.47,0.0,0.0,0.0,0.0,1,1,0
10013,'20',1,14,2,5.346,1.47,0.0,0.0,0.0,0.0,1,1,0
10014,'1A',1,14,2,3.96,1.089,0.0,0.0,0.0,0.0,1,1,0
10015,'10',1,14,2,5.049,1.388,0.0,0.0,0.0,0.0,1,1,0
10015,'20',1,14,2,5.049,1.388,0.0,0.0,0.0,0.0,1,1,0
10016,'1A',1,14,2,4.257,1.171,0.0,0.0,0.0,0.0,1,1,0
10017,'10',1,14,2,4.455,1.225,0.0,0.0,0.0,0.0,1,1,0
10017,'20',1,14,2,4.455,1.225,0.0,0.0,0.0,0.0,1,1,0
10018,'1A',1,14,2,2.93,0.806,0.0,0.0,0.0,0.0,1,1,0
10019,'10',1,14,2,10.494,2.886,0.0,0.0,0.0,0.0,1,1,0
10019,'20',1,14,2,10.494,2.886,0.0,0.0,0.0,0.0,1,1,0
10020,'10',1,14,2,16.038,4.41,0.0,0.0,0.0,0.0,1,1,0
10020,'20',1,14,2,16.038,4.41,0.0,0.0,0.0,0.0,1,1,0
10021,'10',1,14,2,8.514,2.341,0.0,0.0,0.0,0.0,1,1,0
10021,'20',1,14,2,8.514,2.341,0.0,0.0,0.0,0.0,1,1,0
10022,'10',1,14,2,7.227,1.987,0.0,0.0,0.0,0.0,1,1,0
10022,'20',1,14,2,7.227,1.987,0.0,0.0,0.0,0.0,1,1,0
10023,'10',1,14,2,16.137,4.438,0.0,0.0,0.0,0.0,1,1,0
10023,'20',1,14,2,16.137,4.438,0.0,0.0,0.0,0.0,1,1,0
10024,'10',1,14,2,18.018,4.955,0.0,0.0,0.0,0.0,1,1,0
10024,'20',1,14,2,18.018,4.955,0.0,0.0,0.0,0.0,1,1,0
10025,'10',1,14,2,20.295,5.581,0.0,0.0,0.0,0.0,1,1,0
10025,'20',1,14,2,20.295,5.581,0.0,0.0,0.0,0.0,1,1,0
10026,'1A',1,14,2,10.108,2.78,0.0,0.0,0.0,0.0,1,1,0
10028,'1A',1,14,2,8.197,2.254,0.0,0.0,0.0,0.0,1,1,0
10029,'1A',1,14,2,1.366,0.376,0.0,0.0,0.0,0.0,1,1,0
10030,'1A',1,14,2,5.742,1.579,0.0,0.0,0.0,0.0,1,1,0
10031,'10',1,14,2,12.791,3.517,0.0,0.0,0.0,0.0,1,1,0
10031,'20',1,14,2,12.791,3.517,0.0,0.0,0.0,0.0,1,1,0
10032,'10',1,14,2,10.989,3.022,0.0,0.0,0.0,0.0,1,1,0
10032,'20',1,14,2,10.989,3.022,0.0,0.0,0.0,0.0,1,1,0
10033,'10',1,14,2,11.979,3.294,0.0,0.0,0.0,0.0,1,1,0
10035,'10',1,14,2,3.287,0.904,0.0,0.0,0.0,0.0,1,1,0
10035,'1A',1,14,2,47.193,12.978,0.0,0.0,0.0,0.0,1,1,0
10035,'20',1,14,2,3.287,0.904,0.0,0.0,0.0,0.0,1,1,0
10036,'1A',1,14,2,51.252,14.094,0.0,0.0,0.0,0.0,1,1,0
10037,'10',1,14,2,3.762,1.035,0.0,0.0,0.0,0.0,1,1,0
10037,'20',1,14,2,3.762,1.035,0.0,0.0,0.0,0.0,1,1,0
10038,'10',1,14,2,0.99,0.272,0.0,0.0,0.0,0.0,1,1,0
10038,'20',1,14,2,0.99,0.272,0.0,0.0,0.0,0.0,1,1,0
10039,'10',1,14,2,11.286,3.104,0.0,0.0,0.0,0.0,1,1,0
10039,'20',1,14,2,11.286,3.104,0.0,0.0,0.0,0.0,1,1,0
10040,'1A',1,14,2,6.356,1.748,0.0,0.0,0.0,0.0,1,1,0
10041,'10',1,14,2,10.088,2.774,0.0,0.0,0.0,0.0,1,1,0
10041,'20',1,14,2,10.088,2.774,0.0,0.0,0.0,0.0,1,1,0
10042,'10',1,14,2,7.425,2.042,0.0,0.0,0.0,0.0,1,1,0
10042,'20',1,14,2,7.425,2.042,0.0,0.0,0.0,0.0,1,1,0
10043,'1A',1,14,2,1.99,0.547,0.0,0.0,0.0,0.0,1,1,0
10044,'1A',1,14,2,7.376,2.028,0.0,0.0,0.0,0.0,1,1,0
10045,'10',1,14,2,9.504,2.614,0.0,0.0,0.0,0.0,1,1,0
10045,'20',1,14,2,9.504,2.614,0.0,0.0,0.0,0.0,1,1,0
10046,'10',1,14,2,47.124,12.959,0.0,0.0,0.0,0.0,1,1,0
10048,'10',1,14,2,11.385,3.131,0.0,0.0,0.0,0.0,1,1,0
10048,'20',1,14,2,11.385,3.131,0.0,0.0,0.0,0.0,1,1,0
10049,'10',1,14,2,4.851,1.334,0.0,0.0,0.0,0.0,1,1,0
10049,'20',1,14,2,4.851,1.334,0.0,0.0,0.0,0.0,1,1,0
10050,'10',1,14,2,11.89,3.27,0.0,0.0,0.0,0.0,1,1,0
10050,'20',1,14,2,11.89,3.27,0.0,0.0,0.0,0.0,1,1,0
10051,'1A',1,14,2,2.01,0.553,0.0,0.0,0.0,0.0,1,1,0
10052,'1A',1,14,2,4.297,1.182,0.0,0.0,0.0,0.0,1,1,0
10053,'10',1,14,2,1.257,0.346,0.0,0.0,0.0,0.0,1,1,0
10055,'10',1,14,2,14.058,3.866,0.0,0.0,0.0,0.0,1,1,0
10055,'20',1,14,2,14.058,3.866,0.0,0.0,0.0,0.0,1,1,0
10056,'10',1,14,2,22.869,6.289,0.0,0.0,0.0,0.0,1,1,0
10056,'20',1,14,2,22.869,6.289,0.0,0.0,0.0,0.0,1,1,0
10057,'10',1,14,2,10.791,2.968,0.0,0.0,0.0,0.0,1,1,0
10057,'20',1,14,2,10.791,2.968,0.0,0.0,0.0,0.0,1,1,0
10058,'1A',1,14,2,4.336,1.192,0.0,0.0,0.0,0.0,1,1,0
10059,'10',1,14,2,14.504,3.988,0.0,0.0,0.0,0.0,1,1,0
10059,'20',1,14,2,14.504,3.988,0.0,0.0,0.0,0.0,1,1,0
10060,'10',1,14,2,19.463,5.352,0.0,0.0,0.0,0.0,1,1,0
10060,'20',1,14,2,19.463,5.352,0.0,0.0,0.0,0.0,1,1,0
10061,'10',1,14,2,22.433,6.169,0.0,0.0,0.0,0.0,1,1,0
10061,'20',1,14,2,22.433,6.169,0.0,0.0,0.0,0.0,1,1,0
10062,'1A',1,14,2,2.237,0.615,0.0,0.0,0.0,0.0,1,1,0
10063,'1A',1,14,2,3.465,0.953,0.0,0.0,0.0,0.0,1,1,0
10064,'10',1,14,2,3.247,0.893,0.0,0.0,0.0,0.0,1,1,0
10064,'20',1,14,2,3.247,0.893,0.0,0.0,0.0,0.0,1,1,0
10065,'10',1,14,2,4.148,1.141,0.0,0.0,0.0,0.0,1,1,0
10065,'20',1,14,2,4.148,1.141,0.0,0.0,0.0,0.0,1,1,0
10066,'10',1,14,2,7.841,2.156,0.0,0.0,0.0,0.0,1,1,0
10066,'20',1,14,2,7.841,2.156,0.0,0.0,0.0,0.0,1,1,0
10067,'10',1,14,2,4.594,1.263,0.0,0.0,0.0,0.0,1,1,0
10067,'20',1,14,2,4.594,1.263,0.0,0.0,0.0,0.0,1,1,0
10068,'10',1,14,2,4.415,1.214,0.0,0.0,0.0,0.0,1,1,0
10068,'20',1,14,2,4.415,1.214,0.0,0.0,0.0,0.0,1,1,0
10069,'10',1,14,2,10.543,2.899,0.0,0.0,0.0,0.0,1,1,0
10069,'20',1,14,2,10.543,2.899,0.0,0.0,0.0,0.0,1,1,0
10070,'1A',1,14,2,7.118,1.957,0.0,0.0,0.0,0.0,1,1,0
10071,'10',1,14,2,13.603,3.741,0.0,0.0,0.0,0.0,1,1,0
10071,'20',1,14,2,13.603,3.741,0.0,0.0,0.0,0.0,1,1,0
10072,'1A',1,14,2,6.445,1.772,0.0,0.0,0.0,0.0,1,1,0
10073,'10',1,14,2,14.504,3.988,0.0,0.0,0.0,0.0,1,1,0
10073,'20',1,14,2,14.504,3.988,0.0,0.0,0.0,0.0,1,1,0
10074,'1A',1,14,2,5.168,1.421,0.0,0.0,0.0,0.0,1,1,0
10075,'1A',1,14,2,7.504,2.064,0.0,0.0,0.0,0.0,1,1,0
10076,'1A',1,14,2,3.782,1.04,0.0,0.0,0.0,0.0,1,1,0
10077,'1A',1,14,2,3.643,1.002,0.0,0.0,0.0,0.0,1,1,0
10078,'1A',1,14,2,10.474,2.88,0.0,0.0,0.0,0.0,1,1,0
10079,'1A',1,14,2,4.93,1.356,0.0,0.0,0.0,0.0,1,1,0
10080,'1A',1,14,2,1.683,0.463,0.0,0.0,0.0,0.0,1,1,0
10081,'1A',1,14,2,6.583,1.81,0.0,0.0,0.0,0.0,1,1,0
10082,'1A',1,14,2,8.841,2.431,0.0,0.0,0.0,0.0,1,1,0
10083,'10',1,14,2,8.019,2.205,0.0,0.0,0.0,0.0,1,1,0
10083,'20',1,14,2,8.019,2.205,0.0,0.0,0.0,0.0,1,1,0
10084,'10',1,14,2,5.247,1.443,0.0,0.0,0.0,0.0,1,1,0
10084,'20',1,14,2,5.247,1.443,0.0,0.0,0.0,0.0,1,1,0
10085,'10',1,14,2,40.986,11.271,0.0,0.0,0.0,0.0,1,1,0
10087,'1A',1,14,2,5.485,1.508,0.0,0.0,0.0,0.0,1,1,0
10088,'1A',1,14,2,3.732,1.026,0.0,0.0,0.0,0.0,1,1,0
10089,'1A',1,14,2,1.752,0.482,0.0,0.0,0.0,0.0,1,1,0
10090,'10',1,14,2,9.603,2.641,0.0,0.0,0.0,0.0,1,1,0
10090,'20',1,14,2,9.603,2.641,0.0,0.0,0.0,0.0,1,1,0
10091,'10',1,14,2,19.206,5.282,0.0,0.0,0.0,0.0,1,1,0
10091,'20',1,14,2,19.206,5.282,0.0,0.0,0.0,0.0,1,1,0
10092,'10',1,14,2,9.108,2.505,0.0,0.0,0.0,0.0,1,1,0
10092,'20',1,14,2,9.108,2.505,0.0,0.0,0.0,0.0,1,1,0
10093,'1A',1,14,2,18.691,5.14,0.0,0.0,0.0,0.0,1,1,0
10094,'1A',1,14,2,5.98,1.644,0.0,0.0,0.0,0.0,1,1,0
10095,'1A',1,14,2,4.188,1.152,0.0,0.0,0.0,0.0,1,1,0
10097,'1A',1,14,2,50.272,13.825,0.0,0.0,0.0,0.0,1,1,0
10098,'10',1,14,2,8.316,2.287,0.0,0.0,0.0,0.0,1,1,0
10098,'20',1,14,2,8.316,2.287,0.0,0.0,0.0,0.0,1,1,0
10099,'10',1,14,2,13.464,3.703,0.0,0.0,0.0,0.0,1,1,0
10099,'20',1,14,2,13.464,3.703,0.0,0.0,0.0,0.0,1,1,0
10100,'10',1,14,2,11.88,3.267,0.0,0.0,0.0,0.0,1,1,0
10100,'20',1,14,2,11.88,3.267,0.0,0.0,0.0,0.0,1,1,0
10101,'10',1,14,2,6.831,1.879,0.0,0.0,0.0,0.0,1,1,0
10101,'20',1,14,2,6.831,1.879,0.0,0.0,0.0,0.0,1,1,0
10102,'1A',1,14,2,8.722,2.399,0.0,0.0,0.0,0.0,1,1,0
10103,'10',1,14,2,3.564,0.98,0.0,0.0,0.0,0.0,1,1,0
10103,'20',1,14,2,3.564,0.98,0.0,0.0,0.0,0.0,1,1,0
10104,'1A',1,14,2,8.524,2.344,0.0,0.0,0.0,0.0,1,1,0
10105,'10',1,14,2,26.336,11.742,0.0,0.0,0.0,0.0,1,1,0
10105,'20',1,14,2,26.336,-7.2,0.0,0.0,0.0,0.0,1,1,0
10107,'10',1,14,2,10.494,2.886,0.0,0.0,0.0,0.0,1,1,0
10107,'20',1,14,2,10.494,2.886,0.0,0.0,0.0,0.0,1,1,0
10109,'10',1,14,2,9.405,2.586,0.0,0.0,0.0,0.0,1,1,0
10109,'20',1,14,2,9.405,2.586,0.0,0.0,0.0,0.0,1,1,0
10110,'1A',1,14,2,16.365,4.5,0.0,0.0,0.0,0.0,1,1,0
10111,'10',1,14,2,12.87,3.539,0.0,0.0,0.0,0.0,1,1,0
10111,'20',1,14,2,12.87,3.539,0.0,0.0,0.0,0.0,1,1,0
10112,'10',1,14,2,2.376,0.653,0.0,0.0,0.0,0.0,1,1,0
10112,'20',1,14,2,2.376,0.653,0.0,0.0,0.0,0.0,1,1,0
10113,'1A',1,14,2,0.891,0.245,0.0,0.0,0.0,0.0,1,1,0
10114,'10',1,14,2,9.405,2.586,0.0,0.0,0.0,0.0,1,1,0
10114,'20',1,14,2,9.405,2.586,0.0,0.0,0.0,0.0,1,1,0
10115,'10',1,14,2,10.494,2.886,0.0,0.0,0.0,0.0,1,1,0
10115,'20',1,14,2,10.494,2.886,0.0,0.0,0.0,0.0,1,1,0
10116,'1A',1,14,2,1.604,0.441,0.0,0.0,0.0,0.0,1,1,0
10117,'1A',1,14,2,12.563,3.455,0.0,0.0,0.0,0.0,1,1,0
10118,'10',1,14,2,10.296,2.831,0.0,0.0,0.0,0.0,1,1,0
10118,'20',1,14,2,10.296,2.831,0.0,0.0,0.0,0.0,1,1,0
10119,'1A',1,14,2,3.237,0.89,0.0,0.0,0.0,0.0,1,1,0
10120,'10',1,14,2,7.326,2.015,0.0,0.0,0.0,0.0,1,1,0
10120,'20',1,14,2,7.326,2.015,0.0,0.0,0.0,0.0,1,1,0
10121,'10',1,14,2,13.246,3.643,0.0,0.0,0.0,0.0,1,1,0
10121,'20',1,14,2,13.246,3.643,0.0,0.0,0.0,0.0,1,1,0
10122,'10',1,14,2,13.167,3.621,0.0,0.0,0.0,0.0,1,1,0
10122,'20',1,14,2,13.167,3.621,0.0,0.0,0.0,0.0,1,1,0
10123,'1A',1,14,2,5.683,1.563,0.0,0.0,0.0,0.0,1,1,0
10124,'10',1,14,2,2.376,0.653,0.0,0.0,0.0,0.0,1,1,0
10124,'20',1,14,2,2.376,0.653,0.0,0.0,0.0,0.0,1,1,0
10125,'1A',1,14,2,9.464,2.603,0.0,0.0,0.0,0.0,1,1,0
10126,'10',1,14,2,9.702,2.668,0.0,0.0,0.0,0.0,1,1,0
10126,'20',1,14,2,9.702,2.668,0.0,0.0,0.0,0.0,1,1,0
10128,'10',1,14,2,19.473,5.355,0.0,0.0,0.0,0.0,1,1,0
10128,'1A',1,14,2,43.431,11.944,0.0,0.0,0.0,0.0,1,1,0
10129,'10',1,14,2,9.405,2.586,0.0,0.0,0.0,0.0,1,1,0
10129,'20',1,14,2,9.405,2.586,0.0,0.0,0.0,0.0,1,1,0
10130,'1A',1,14,2,5.435,1.495,0.0,0.0,0.0,0.0,1,1,0
10131,'1A',1,14,2,1.931,0.531,0.0,0.0,0.0,0.0,1,1,0
10132,'10',1,14,2,3.515,0.966,0.0,0.0,0.0,0.0,1,1,0
10132,'20',1,14,2,3.515,0.966,0.0,0.0,0.0,0.0,1,1,0
10133,'10',1,14,2,7.425,2.042,0.0,0.0,0.0,0.0,1,1,0
10133,'20',1,14,2,7.425,2.042,0.0,0.0,0.0,0.0,1,1,0
10134,'10',1,14,2,4.95,1.361,0.0,0.0,0.0,0.0,1,1,0
10134,'20',1,14,2,4.95,1.361,0.0,0.0,0.0,0.0,1,1,0
...
0 / END OF LOAD DATA BEGIN FIXED SHUNT DATA
0 / END OF FIXED SHUNT DATA BEGIN GENERATOR DATA
2615,'G3',4.498,65.8,65.8,0.0,1.05,0,100.0,0.0,1.0,0.0,0.0,1.0,1,100.0,188.0,1.0,1,1.0,0,1.0,0,1.0,0,1.0,0,1.0
2616,'G2',4.163,59.5,59.5,0.0,1.05,0,100.0,0.0,1.0,0.0,0.0,1.0,1,100.0,170.0,1.0,1,1.0,0,1.0,0,1.0,0,1.0,0,1.0
2617,'G1',4.163,59.5,59.5,0.0,1.05,0,100.0,0.0,1.0,0.0,0.0,1.0,1,100.0,170.0,1.0,1,1.0,0,1.0,0,1.0,0,1.0,0,1.0
2621,'U1',8.344,11.45,11.45,-6.15,1.05,0,100.0,0.0,1.0,0.0,0.0,1.0,1,100.0,18.5,8.0,1,1.0,0,1.0,0,1.0,0,1.0,0,1.0
2621,'U2',8.344,11.45,11.45,-6.15,1.05,0,100.0,0.0,1.0,0.0,0.0,1.0,1,100.0,18.5,8.0,1,1.0,0,1.0,0,1.0,0,1.0,0,1.0
2934,'U1',84.0,27.6,27.6,-27.6,1.05,0,100.0,0.0,1.0,0.0,0.0,1.0,1,100.0,84.0,40.0,1,1.0,0,1.0,0,1.0,0,1.0,0,1.0
2937,'U1',40.0,24.8,24.8,-13.3,1.05,0,100.0,0.0,1.0,0.0,0.0,1.0,1,100.0,40.0,15.0,1,1.0,0,1.0,0,1.0,0,1.0,0,1.0
2937,'U2',56.0,34.636,34.7,-18.7,1.05,0,100.0,0.0,1.0,0.0,0.0,1.0,1,100.0,56.0,16.0,1,1.0,0,1.0,0,1.0,0,1.0,0,1.0
2938,'U1',54.5,12.736,33.8,-18.2,1.05,0,100.0,0.0,1.0,0.0,0.0,1.0,1,100.0,54.5,38.0,1,1.0,0,1.0,0,1.0,0,1.0,0,1.0
2938,'U2',54.5,12.736,33.8,-18.2,1.05,0,100.0,0.0,1.0,0.0,0.0,1.0,1,100.0,54.5,38.0,1,1.0,0,1.0,0,1.0,0,1.0,0,1.0
2938,'U3',54.5,12.736,33.8,-18.2,1.05,0,100.0,0.0,1.0,0.0,0.0,1.0,1,100.0,54.5,38.0,1,1.0,0,1.0,0,1.0,0,1.0,0,1.0
2940,'U1',9.68,9.195,12.1,-8.3,1.05,0,100.0,0.0,1.0,0.0,0.0,1.0,1,100.0,25.0,9.0,1,1.0,0,1.0,0,1.0,0,1.0,0,1.0
2940,'U2',9.68,9.195,12.1,-8.3,1.05,0,100.0,0.0,1.0,0.0,0.0,1.0,1,100.0,25.0,9.0,1,1.0,0,1.0,0,1.0,0,1.0,0,1.0
2940,'U3',8.816,9.195,14.5,-10.0,1.05,0,100.0,0.0,1.0,0.0,0.0,1.0,1,100.0,30.0,8.0,1,1.0,0,1.0,0,1.0,0,1.0,0,1.0
2943,'G2',236.733,97.432,179.1,-96.3,1.05,0,100.0,0.0,1.0,0.0,0.0,1.0,1,100.0,289.0,150.0,1,1.0,0,1.0,0,1.0,0,1.0,0,1.0
2946,'G1',236.733,97.446,179.1,-96.3,1.05,0,100.0,0.0,1.0,0.0,0.0,1.0,1,100.0,289.0,150.0,1,1.0,0,1.0,0,1.0,0,1.0,0,1.0
2947,'G2',236.733,89.263,179.1,-96.3,1.05,0,100.0,0.0,1.0,0.0,0.0,1.0,1,100.0,289.0,150.0,1,1.0,0,1.0,0,1.0,0,1.0,0,1.0
2948,'G1',236.733,89.315,179.1,-96.3,1.05,0,100.0,0.0,1.0,0.0,0.0,1.0,1,100.0,289.0,150.0,1,1.0,0,1.0,0,1.0,0,1.0,0,1.0
2951,'10',0.911,0.6,0.6,-0.6,1.05,0,100.0,0.0,1.0,0.0,0.0,1.0,1,100.0,2.23,0.87,1,1.0,0,1.0,0,1.0,0,1.0,0,1.0
2951,'11',0.911,0.6,0.6,-0.6,1.05,0,100.0,0.0,1.0,0.0,0.0,1.0,1,100.0,2.23,0.87,1,1.0,0,1.0,0,1.0,0,1.0,0,1.0
2951,'12',0.911,0.6,0.6,-0.6,1.05,0,100.0,0.0,1.0,0.0,0.0,1.0,1,100.0,2.23,0.87,1,1.0,0,1.0,0,1.0,0,1.0,0,1.0
2951,'13',0.911,0.6,0.6,-0.6,1.05,0,100.0,0.0,1.0,0.0,0.0,1.0,1,100.0,2.23,0.87,1,1.0,0,1.0,0,1.0,0,1.0,0,1.0
2951,'U1',0.911,0.6,0.6,-0.6,1.05,0,100.0,0.0,1.0,0.0,0.0,1.0,1,100.0,2.23,0.87,1,1.0,0,1.0,0,1.0,0,1.0,0,1.0
2951,'U2',0.911,0.6,0.6,-0.6,1.05,0,100.0,0.0,1.0,0.0,0.0,1.0,1,100.0,2.23,0.87,1,1.0,0,1.0,0,1.0,0,1.0,0,1.0
2951,'U3',0.911,0.6,0.6,-0.6,1.05,0,100.0,0.0,1.0,0.0,0.0,1.0,1,100.0,2.23,0.87,1,1.0,0,1.0,0,1.0,0,1.0,0,1.0
2951,'U4',0.911,0.6,0.6,-0.6,1.05,0,100.0,0.0,1.0,0.0,0.0,1.0,1,100.0,2.23,0.87,1,1.0,0,1.0,0,1.0,0,1.0,0,1.0
2951,'U5',0.911,0.6,0.6,-0.6,1.05,0,100.0,0.0,1.0,0.0,0.0,1.0,1,100.0,2.23,0.87,1,1.0,0,1.0,0,1.0,0,1.0,0,1.0
2951,'U6',0.911,0.6,0.6,-0.6,1.05,0,100.0,0.0,1.0,0.0,0.0,1.0,1,100.0,2.23,0.87,1,1.0,0,1.0,0,1.0,0,1.0,0,1.0
2951,'U7',0.911,0.6,0.6,-0.6,1.05,0,100.0,0.0,1.0,0.0,0.0,1.0,1,100.0,2.23,0.87,1,1.0,0,1.0,0,1.0,0,1.0,0,1.0
2951,'U8',0.911,0.6,0.6,-0.6,1.05,0,100.0,0.0,1.0,0.0,0.0,1.0,1,100.0,2.23,0.87,1,1.0,0,1.0,0,1.0,0,1.0,0,1.0
2951,'U9',0.911,0.6,0.6,-0.6,1.05,0,100.0,0.0,1.0,0.0,0.0,1.0,1,100.0,2.23,0.87,1,1.0,0,1.0,0,1.0,0,1.0,0,1.0
2953,'G1',535.5,159.507,259.4,-178.5,1.05,0,100.0,0.0,1.0,0.0,0.0,1.0,1,100.0,535.5,150.0,1,1.0,0,1.0,0,1.0,0,1.0,0,1.0
2954,'G2',342.0,144.185,256.5,-114.0,1.05,0,100.0,0.0,1.0,0.0,0.0,1.0,1,100.0,342.0,90.0,1,1.0,0,1.0,0,1.0,0,1.0,0,1.0
2957,'G1',0.0,0.0,105.4,-56.7,1.05,0,100.0,0.0,1.0,0.0,0.0,1.0,0,100.0,170.0,100.0,1,1.0,0,1.0,0,1.0,0,1.0,0,1.0
2957,'G2',0.0,0.0,105.4,-56.7,1.05,0,100.0,0.0,1.0,0.0,0.0,1.0,0,100.0,170.0,100.0,1,1.0,0,1.0,0,1.0,0,1.0,0,1.0
2957,'G3',255.0,116.267,158.0,-85.0,1.05,0,100.0,0.0,1.0,0.0,0.0,1.0,1,100.0,255.0,120.0,1,1.0,0,1.0,0,1.0,0,1.0,0,1.0
2960,'18',41.9,20.3,20.3,-14.0,1.05,0,100.0,0.0,1.0,0.0,0.0,1.0,1,100.0,41.9,18.6,1,1.0,0,1.0,0,1.0,0,1.0,0,1.0
2961,'23',17.547,14.7,14.7,-7.9,1.05,0,100.0,0.0,1.0,0.0,0.0,1.0,1,100.0,23.8,16.9,1,1.0,0,1.0,0,1.0,0,1.0,0,1.0
2962,'22',17.647,14.7,14.7,-7.9,1.05,0,100.0,0.0,1.0,0.0,0.0,1.0,1,100.0,23.8,17.0,1,1.0,0,1.0,0,1.0,0,1.0,0,1.0
2963,'21',17.947,14.7,14.7,-7.9,1.05,0,100.0,0.0,1.0,0.0,0.0,1.0,1,100.0,23.8,17.3,1,1.0,0,1.0,0,1.0,0,1.0,0,1.0
2964,'20',18.247,14.7,14.7,-7.9,1.05,0,100.0,0.0,1.0,0.0,0.0,1.0,1,100.0,23.8,17.6,1,1.0,0,1.0,0,1.0,0,1.0,0,1.0
2965,'19',41.9,20.3,20.3,-14.0,1.05,0,100.0,0.0,1.0,0.0,0.0,1.0,1,100.0,41.9,18.6,1,1.0,0,1.0,0,1.0,0,1.0,0,1.0
2966,'17',41.9,20.3,20.3,-14.0,1.05,0,100.0,0.0,1.0,0.0,0.0,1.0,1,100.0,41.9,18.6,1,1.0,0,1.0,0,1.0,0,1.0,0,1.0
2967,'16',41.9,20.3,20.3,-14.0,1.05,0,100.0,0.0,1.0,0.0,0.0,1.0,1,100.0,41.9,18.6,1,1.0,0,1.0,0,1.0,0,1.0,0,1.0
2968,'15',41.9,20.3,20.3,-14.0,1.05,0,100.0,0.0,1.0,0.0,0.0,1.0,1,100.0,41.9,18.6,1,1.0,0,1.0,0,1.0,0,1.0,0,1.0
2969,'14',41.9,20.3,20.3,-14.0,1.05,0,100.0,0.0,1.0,0.0,0.0,1.0,1,100.0,41.9,18.6,1,1.0,0,1.0,0,1.0,0,1.0,0,1.0
2970,'13',41.9,20.3,20.3,-14.0,1.05,0,100.0,0.0,1.0,0.0,0.0,1.0,1,100.0,41.9,18.6,1,1.0,0,1.0,0,1.0,0,1.0,0,1.0
2971,'G8',41.9,20.3,20.3,-14.0,1.05,0,100.0,0.0,1.0,0.0,0.0,1.0,1,100.0,41.9,18.6,1,1.0,0,1.0,0,1.0,0,1.0,0,1.0
2972,'G7',15.66,12.76,12.76,-6.86,1.05,0,100.0,0.0,1.0,0.0,0.0,1.0,1,100.0,20.59,15.1,1,1.0,0,1.0,0,1.0,0,1.0,0,1.0
2973,'G6',15.66,12.76,12.76,-6.86,1.05,0,100.0,0.0,1.0,0.0,0.0,1.0,1,100.0,20.59,15.1,1,1.0,0,1.0,0,1.0,0,1.0,0,1.0
2974,'G5',15.66,12.76,12.76,-6.86,1.05,0,100.0,0.0,1.0,0.0,0.0,1.0,1,100.0,20.59,15.1,1,1.0,0,1.0,0,1.0,0,1.0,0,1.0
2975,'G4',15.66,12.76,12.76,-6.86,1.05,0,100.0,0.0,1.0,0.0,0.0,1.0,1,100.0,20.59,15.1,1,1.0,0,1.0,0,1.0,0,1.0,0,1.0
2976,'G3',15.66,12.76,12.76,-6.86,1.05,0,100.0,0.0,1.0,0.0,0.0,1.0,1,100.0,20.59,15.1,1,1.0,0,1.0,0,1.0,0,1.0,0,1.0
2977,'G1',15.66,12.76,12.76,-6.86,1.05,0,100.0,0.0,1.0,0.0,0.0,1.0,1,100.0,20.59,15.1,1,1.0,0,1.0,0,1.0,0,1.0,0,1.0
2978,'10',41.9,20.3,20.3,-14.0,1.05,0,100.0,0.0,1.0,0.0,0.0,1.0,1,100.0,41.9,18.6,1,1.0,0,1.0,0,1.0,0,1.0,0,1.0
2979,'11',41.9,20.3,20.3,-14.0,1.05,0,100.0,0.0,1.0,0.0,0.0,1.0,1,100.0,41.9,18.6,1,1.0,0,1.0,0,1.0,0,1.0,0,1.0
2982,'12',41.9,20.3,20.3,-14.0,1.05,0,100.0,0.0,1.0,0.0,0.0,1.0,1,100.0,41.9,18.6,1,1.0,0,1.0,0,1.0,0,1.0,0,1.0
2983,'G9',41.9,20.3,20.3,-14.0,1.05,0,100.0,0.0,1.0,0.0,0.0,1.0,1,100.0,41.9,18.6,1,1.0,0,1.0,0,1.0,0,1.0,0,1.0
2985,'G2',15.66,12.76,12.76,-6.86,1.05,0,100.0,0.0,1.0,0.0,0.0,1.0,1,100.0,20.59,15.1,1,1.0,0,1.0,0,1.0,0,1.0,0,1.0
2986,'G3',82.201,135.45,135.45,0.0,1.05,0,100.0,0.0,1.0,0.0,0.0,1.0,1,100.0,387.0,75.0,1,1.0,0,1.0,0,1.0,0,1.0,0,1.0
2987,'G1',64.896,63.0,63.0,0.0,1.05,0,100.0,0.0,1.0,0.0,0.0,1.0,1,100.0,180.0,60.0,1,1.0,0,1.0,0,1.0,0,1.0,0,1.0
2990,'G2',85.228,131.6,131.6,0.0,1.05,0,100.0,0.0,1.0,0.0,0.0,1.0,1,100.0,376.0,75.0,1,1.0,0,1.0,0,1.0,0,1.0,0,1.0
2992,'G4',85.527,135.45,135.45,0.0,1.05,0,100.0,0.0,1.0,0.0,0.0,1.0,1,100.0,387.0,75.0,1,1.0,0,1.0,0,1.0,0,1.0,0,1.0
2994,'G6',300.0,24.645,185.9,-100.0,1.05,0,100.0,0.0,1.0,0.0,0.0,1.0,1,100.0,300.0,194.0,1,1.0,0,1.0,0,1.0,0,1.0,0,1.0
2995,'G4',300.0,24.645,185.9,-100.0,1.05,0,100.0,0.0,1.0,0.0,0.0,1.0,1,100.0,300.0,194.0,1,1.0,0,1.0,0,1.0,0,1.0,0,1.0
2996,'G3',141.0,19.574,87.4,-47.0,1.05,0,100.0,0.0,1.0,0.0,0.0,1.0,1,100.0,141.0,90.0,1,1.0,0,1.0,0,1.0,0,1.0,0,1.0
2997,'G2',141.0,19.515,87.4,-47.0,1.05,0,100.0,0.0,1.0,0.0,0.0,1.0,1,100.0,141.0,90.0,1,1.0,0,1.0,0,1.0,0,1.0,0,1.0
2998,'G1',141.0,19.515,87.4,-47.0,1.05,0,100.0,0.0,1.0,0.0,0.0,1.0,1,100.0,141.0,90.0,1,1.0,0,1.0,0,1.0,0,1.0,0,1.0
3001,'G5',300.0,24.704,185.9,-100.0,1.05,0,100.0,0.0,1.0,0.0,0.0,1.0,1,100.0,300.0,194.0,1,1.0,0,1.0,0,1.0,0,1.0,0,1.0
3003,'U1',50.032,32.1,32.1,-22.1,1.05,0,100.0,0.0,1.0,0.0,0.0,1.0,1,100.0,66.2,48.8,1,1.0,0,1.0,0,1.0,0,1.0,0,1.0
3003,'U2',35.188,23.1,23.1,-15.9,1.05,0,100.0,0.0,1.0,0.0,0.0,1.0,1,100.0,47.7,34.3,1,1.0,0,1.0,0,1.0,0,1.0,0,1.0
3006,'G2',300.0,41.57,145.3,-100.0,1.05,0,100.0,0.0,1.0,0.0,0.0,1.0,1,100.0,300.0,220.0,1,1.0,0,1.0,0,1.0,0,1.0,0,1.0
3007,'G1',300.0,41.574,145.3,-100.0,1.05,0,100.0,0.0,1.0,0.0,0.0,1.0,1,100.0,300.0,220.0,1,1.0,0,1.0,0,1.0,0,1.0,0,1.0
3010,'G1',128.7,32.3,32.3,-32.3,1.05,0,100.0,0.0,1.0,0.0,0.0,1.0,1,100.0,128.7,85.0,1,1.0,0,1.0,0,1.0,0,1.0,0,1.0
3010,'G2',128.7,32.3,32.3,-32.3,1.05,0,100.0,0.0,1.0,0.0,0.0,1.0,1,100.0,128.7,85.0,1,1.0,0,1.0,0,1.0,0,1.0,0,1.0
3010,'G3',128.7,32.3,32.3,-32.3,1.05,0,100.0,0.0,1.0,0.0,0.0,1.0,1,100.0,128.7,30.0,1,1.0,0,1.0,0,1.0,0,1.0,0,1.0
3013,'U1',13.6,10.2,10.2,-4.53,1.05,0,100.0,0.0,1.0,0.0,0.0,1.0,1,100.0,13.6,4.0,1,1.0,0,1.0,0,1.0,0,1.0,0,1.0
3013,'U2',13.6,10.2,10.2,-4.53,1.05,0,100.0,0.0,1.0,0.0,0.0,1.0,1,100.0,13.6,4.0,1,1.0,0,1.0,0,1.0,0,1.0,0,1.0
3013,'U3',13.6,10.2,10.2,-4.53,1.05,0,100.0,0.0,1.0,0.0,0.0,1.0,1,100.0,13.6,4.0,1,1.0,0,1.0,0,1.0,0,1.0,0,1.0
3015,'U1',9.0,3.675,6.75,-3.0,1.05,0,100.0,0.0,1.0,0.0,0.0,1.0,1,100.0,9.0,3.0,1,1.0,0,1.0,0,1.0,0,1.0,0,1.0
3015,'U2',9.0,3.675,6.75,-3.0,1.05,0,100.0,0.0,1.0,0.0,0.0,1.0,1,100.0,9.0,3.0,1,1.0,0,1.0,0,1.0,0,1.0,0,1.0
3015,'U3',9.0,3.675,6.75,-3.0,1.05,0,100.0,0.0,1.0,0.0,0.0,1.0,1,100.0,9.0,3.0,1,1.0,0,1.0,0,1.0,0,1.0,0,1.0
3015,'U4',3.245,3.675,6.75,-3.0,1.05,0,100.0,0.0,1.0,0.0,0.0,1.0,1,100.0,9.0,3.0,1,1.0,0,1.0,0,1.0,0,1.0,0,1.0
3018,'U1',238.733,67.539,216.8,-96.3,1.05,0,100.0,0.0,1.0,0.0,0.0,1.0,1,100.0,289.0,155.0,1,1.0,0,1.0,0,1.0,0,1.0,0,1.0
3021,'G6',15.627,20.9,20.9,-11.2,1.05,0,100.0,0.0,1.0,0.0,0.0,1.0,1,100.0,33.7,15.0,1,1.0,0,1.0,0,1.0,0,1.0,0,1.0
3022,'G5',15.627,20.9,20.9,-11.2,1.05,0,100.0,0.0,1.0,0.0,0.0,1.0,1,100.0,33.7,15.0,1,1.0,0,1.0,0,1.0,0,1.0,0,1.0
3023,'G4',36.116,37.2,37.2,-20.0,1.05,0,100.0,0.0,1.0,0.0,0.0,1.0,1,100.0,60.0,35.0,1,1.0,0,1.0,0,1.0,0,1.0,0,1.0
3024,'G3',36.116,37.2,37.2,-20.0,1.05,0,100.0,0.0,1.0,0.0,0.0,1.0,1,100.0,60.0,35.0,1,1.0,0,1.0,0,1.0,0,1.0,0,1.0
3025,'G2',39.171,56.7,56.7,-29.95,1.05,0,100.0,0.0,1.0,0.0,0.0,1.0,1,100.0,89.8,37.5,1,1.0,0,1.0,0,1.0,0,1.0,0,1.0
3026,'G1',39.171,56.7,56.7,-29.95,1.05,0,100.0,0.0,1.0,0.0,0.0,1.0,1,100.0,89.8,37.5,1,1.0,0,1.0,0,1.0,0,1.0,0,1.0
3028,'G7',5.67,22.3,22.3,-12.0,1.05,0,100.0,0.0,1.0,0.0,0.0,1.0,1,100.0,36.0,5.0,1,1.0,0,1.0,0,1.0,0,1.0,0,1.0
3030,'G4',250.0,89.356,100.0,-50.0,1.05,0,100.0,0.0,1.0,0.0,0.0,1.0,1,100.0,250.0,1.0,1,1.0,0,1.0,0,1.0,0,1.0,0,1.0
3031,'G3',91.488,85.863,100.0,-50.0,1.05,0,100.0,0.0,1.0,0.0,0.0,1.0,1,100.0,250.0,1.0,1,1.0,0,1.0,0,1.0,0,1.0,0,1.0
3032,'G2',250.0,89.356,100.0,-50.0,1.05,0,100.0,0.0,1.0,0.0,0.0,1.0,1,100.0,250.0,1.0,1,1.0,0,1.0,0,1.0,0,1.0,0,1.0
3033,'G1',250.0,89.356,100.0,-50.0,1.05,0,100.0,0.0,1.0,0.0,0.0,1.0,1,100.0,250.0,1.0,1,1.0,0,1.0,0,1.0,0,1.0,0,1.0
3036,'G2',621.0,279.645,300.8,-207.0,1.05,0,100.0,0.0,1.0,0.0,0.0,1.0,1,100.0,621.0,80.0,1,1.0,0,1.0,0,1.0,0,1.0,0,1.0
3037,'G1',621.0,279.645,300.8,-207.0,1.05,0,100.0,0.0,1.0,0.0,0.0,1.0,1,100.0,621.0,100.0,1,1.0,0,1.0,0,1.0,0,1.0,0,1.0
3041,'G3',201.479,83.638,116.7,-80.3,1.05,0,100.0,0.0,1.0,0.0,0.0,1.0,1,100.0,241.0,100.0,1,1.0,0,1.0,0,1.0,0,1.0,0,1.0
3042,'G2',201.479,83.638,116.7,-80.3,1.05,0,100.0,0.0,1.0,0.0,0.0,1.0,1,100.0,241.0,100.0,1,1.0,0,1.0,0,1.0,0,1.0,0,1.0
3043,'G1',62.934,81.697,230.3,-158.5,1.05,0,100.0,0.0,1.0,0.0,0.0,1.0,1,100.0,475.5,50.0,1,1.0,0,1.0,0,1.0,0,1.0,0,1.0
3044,'G4',367.479,91.197,211.2,-211.2,1.05,0,100.0,0.0,1.0,0.0,0.0,1.0,1,100.0,642.6,350.0,1,1.0,0,1.0,0,1.0,0,1.0,0,1.0
3049,'G3',170.0,88.386,105.4,-56.7,1.05,0,100.0,0.0,1.0,0.0,0.0,1.0,1,100.0,170.0,90.1,1,1.0,0,1.0,0,1.0,0,1.0,0,1.0
3050,'G2',170.0,88.339,105.4,-56.7,1.05,0,100.0,0.0,1.0,0.0,0.0,1.0,1,100.0,170.0,90.1,1,1.0,0,1.0,0,1.0,0,1.0,0,1.0
3051,'G1',180.0,88.575,111.6,-60.0,1.05,0,100.0,0.0,1.0,0.0,0.0,1.0,1,100.0,180.0,95.4,1,1.0,0,1.0,0,1.0,0,1.0,0,1.0
3055,'G2',163.0,88.413,101.0,-54.3,1.05,0,100.0,0.0,1.0,0.0,0.0,1.0,1,100.0,163.0,58.68,1,1.0,0,1.0,0,1.0,0,1.0,0,1.0
3056,'G1',0.0,0.0,247.9,-133.3,1.05,0,100.0,0.0,1.0,0.0,0.0,1.0,0,100.0,400.0,130.0,1,1.0,0,1.0,0,1.0,0,1.0,0,1.0
3060,'U1',40.0,14.0,14.0,0.0,1.05,0,100.0,0.0,1.0,0.0,0.0,1.0,1,100.0,40.0,35.0,1,1.0,0,1.0,0,1.0,0,1.0,0,1.0
3060,'U2',40.0,14.0,14.0,0.0,1.05,0,100.0,0.0,1.0,0.0,0.0,1.0,1,100.0,40.0,35.0,1,1.0,0,1.0,0,1.0,0,1.0,0,1.0
3060,'U3',121.0,42.35,42.35,0.0,1.05,0,100.0,0.0,1.0,0.0,0.0,1.0,1,100.0,121.0,90.0,1,1.0,0,1.0,0,1.0,0,1.0,0,1.0
3060,'U4',121.0,42.35,42.35,0.0,1.05,0,100.0,0.0,1.0,0.0,0.0,1.0,1,100.0,121.0,90.0,1,1.0,0,1.0,0,1.0,0,1.0,0,1.0
3063,'U1',72.0,29.575,44.6,-24.0,1.05,0,100.0,0.0,1.0,0.0,0.0,1.0,1,100.0,72.0,10.0,1,1.0,0,1.0,0,1.0,0,1.0,0,1.0
3063,'U2',163.183,29.575,115.8,-62.3,1.05,0,100.0,0.0,1.0,0.0,0.0,1.0,1,100.0,186.8,110.0,1,1.0,0,1.0,0,1.0,0,1.0,0,1.0
3065,'NJ',300.0,28.568,9900.0,-9900.0,1.02,0,100.0,0.0,1.0,0.0,0.0,1.0,1,100.0,300.0,0.0,1,1.0,0,1.0,0,1.0,0,1.0,0,1.0
3066,'U1',10.3,7.718,7.73,-3.43,1.05,0,100.0,0.0,1.0,0.0,0.0,1.0,1,100.0,10.3,8.0,1,1.0,0,1.0,0,1.0,0,1.0,0,1.0
3066,'U2',10.3,7.718,7.73,-3.43,1.05,0,100.0,0.0,1.0,0.0,0.0,1.0,1,100.0,10.3,8.0,1,1.0,0,1.0,0,1.0,0,1.0,0,1.0
3066,'U3',10.3,7.718,7.73,-3.43,1.05,0,100.0,0.0,1.0,0.0,0.0,1.0,1,100.0,10.3,8.0,1,1.0,0,1.0,0,1.0,0,1.0,0,1.0
3066,'U4',10.3,7.718,7.73,-3.43,1.05,0,100.0,0.0,1.0,0.0,0.0,1.0,1,100.0,10.3,8.0,1,1.0,0,1.0,0,1.0,0,1.0,0,1.0
3066,'U5',10.3,7.718,7.73,-3.43,1.05,0,100.0,0.0,1.0,0.0,0.0,1.0,1,100.0,10.3,8.0,1,1.0,0,1.0,0,1.0,0,1.0,0,1.0
3066,'U6',10.3,7.718,7.73,-3.43,1.05,0,100.0,0.0,1.0,0.0,0.0,1.0,1,100.0,10.3,8.0,1,1.0,0,1.0,0,1.0,0,1.0,0,1.0
3069,'U1',82.841,41.844,50.2,-50.2,1.05,0,100.0,0.0,1.0,0.0,0.0,1.0,1,100.0,152.7,80.0,1,1.0,0,1.0,0,1.0,0,1.0,0,1.0
3069,'U2',128.651,41.844,64.5,-64.5,1.05,0,100.0,0.0,1.0,0.0,0.0,1.0,1,100.0,196.2,125.0,1,1.0,0,1.0,0,1.0,0,1.0,0,1.0
3072,'G2',215.913,116.715,240.3,-240.3,1.05,0,100.0,0.0,1.0,0.0,0.0,1.0,1,100.0,585.0,200.0,1,1.0,0,1.0,0,1.0,0,1.0,0,1.0
3073,'G1',185.776,115.838,190.6,-190.6,1.05,0,100.0,0.0,1.0,0.0,0.0,1.0,1,100.0,580.0,170.0,1,1.0,0,1.0,0,1.0,0,1.0,0,1.0
3076,'U1',25.821,10.405,21.4,-14.7,1.05,0,100.0,0.0,1.0,0.0,0.0,1.0,1,100.0,44.1,25.0,1,1.0,0,1.0,0,1.0,0,1.0,0,1.0
3076,'U2',34.1,10.405,16.5,-11.4,1.05,0,100.0,0.0,1.0,0.0,0.0,1.0,1,100.0,34.1,5.0,1,1.0,0,1.0,0,1.0,0,1.0,0,1.0
3078,'U1',25.0,12.1,12.1,-8.3,1.05,0,100.0,0.0,1.0,0.0,0.0,1.0,1,100.0,25.0,10.0,1,1.0,0,1.0,0,1.0,0,1.0,0,1.0
3078,'U2',48.8,22.32,30.2,-16.3,1.05,0,100.0,0.0,1.0,0.0,0.0,1.0,1,100.0,48.8,16.0,1,1.0,0,1.0,0,1.0,0,1.0,0,1.0
3078,'U3',48.8,22.32,30.2,-16.3,1.05,0,100.0,0.0,1.0,0.0,0.0,1.0,1,100.0,48.8,16.0,1,1.0,0,1.0,0,1.0,0,1.0,0,1.0
3080,'U1',47.0,22.8,22.8,-15.7,1.05,0,100.0,0.0,1.0,0.0,0.0,1.0,1,100.0,47.0,40.0,1,1.0,0,1.0,0,1.0,0,1.0,0,1.0
3080,'U2',25.0,12.1,12.1,-8.3,1.05,0,100.0,0.0,1.0,0.0,0.0,1.0,1,100.0,25.0,10.0,1,1.0,0,1.0,0,1.0,0,1.0,0,1.0
3082,'U1',0.0,0.0,94.3,-55.7,1.05,0,100.0,0.0,1.0,0.0,0.0,1.0,0,100.0,167.2,50.0,1,1.0,0,1.0,0,1.0,0,1.0,0,1.0
3082,'U2',0.0,0.0,96.2,-51.8,1.05,0,100.0,0.0,1.0,0.0,0.0,1.0,0,100.0,155.3,50.0,1,1.0,0,1.0,0,1.0,0,1.0,0,1.0
3084,'U1',65.5,31.7,31.7,-21.8,1.05,0,100.0,0.0,1.0,0.0,0.0,1.0,1,100.0,65.5,45.0,1,1.0,0,1.0,0,1.0,0,1.0,0,1.0
3084,'U2',37.2,18.0,18.0,-12.4,1.05,0,100.0,0.0,1.0,0.0,0.0,1.0,1,100.0,37.2,25.0,1,1.0,0,1.0,0,1.0,0,1.0,0,1.0
3086,'U1',14.2,6.9,6.9,-4.75,1.05,0,100.0,0.0,1.0,0.0,0.0,1.0,1,100.0,14.2,0.2,1,1.0,0,1.0,0,1.0,0,1.0,0,1.0
3086,'U2',14.2,6.9,6.9,-4.75,1.05,0,100.0,0.0,1.0,0.0,0.0,1.0,1,100.0,14.2,0.2,1,1.0,0,1.0,0,1.0,0,1.0,0,1.0
3089,'G1',140.104,107.328,309.05,0.0,1.05,0,100.0,0.0,1.0,0.0,0.0,1.0,1,100.0,883.0,1.0,1,1.0,0,1.0,0,1.0,0,1.0,0,1.0
3094,'U1',95.0,33.468,46.0,-31.7,1.05,0,100.0,0.0,1.0,0.0,0.0,1.0,1,100.0,95.0,70.0,1,1.0,0,1.0,0,1.0,0,1.0,0,1.0
3094,'U2',23.0,11.1,11.1,-7.7,1.05,0,100.0,0.0,1.0,0.0,0.0,1.0,1,100.0,23.0,3.0,1,1.0,0,1.0,0,1.0,0,1.0,0,1.0
3094,'U3',23.77,17.5,17.5,-9.4,1.05,0,100.0,0.0,1.0,0.0,0.0,1.0,1,100.0,28.3,23.0,1,1.0,0,1.0,0,1.0,0,1.0,0,1.0
3095,'U1',12.0,38.6,38.6,-38.6,1.05,0,100.0,0.0,1.0,0.0,0.0,1.0,1,100.0,12.0,0.0,1,1.0,0,1.0,0,1.0,0,1.0,1,1.0
3098,'U1',20.0,10.924,12.4,-6.7,1.05,0,100.0,0.0,1.0,0.0,0.0,1.0,1,100.0,20.0,19.6,1,1.0,0,1.0,0,1.0,0,1.0,0,1.0
3098,'U2',20.0,10.924,12.4,-6.7,1.05,0,100.0,0.0,1.0,0.0,0.0,1.0,1,100.0,20.0,19.1,1,1.0,0,1.0,0,1.0,0,1.0,0,1.0
3098,'U3',25.0,10.924,15.5,-8.3,1.05,0,100.0,0.0,1.0,0.0,0.0,1.0,1,100.0,25.0,19.1,1,1.0,0,1.0,0,1.0,0,1.0,0,1.0
3098,'U4',25.0,10.924,15.5,-8.3,1.05,0,100.0,0.0,1.0,0.0,0.0,1.0,1,100.0,25.0,19.1,1,1.0,0,1.0,0,1.0,0,1.0,0,1.0
3098,'U5',25.0,10.924,15.5,-8.3,1.05,0,100.0,0.0,1.0,0.0,0.0,1.0,1,100.0,25.0,18.7,1,1.0,0,1.0,0,1.0,0,1.0,0,1.0
3103,'U1',25.0,12.1,12.1,-8.3,1.05,0,100.0,0.0,1.0,0.0,0.0,1.0,1,100.0,25.0,3.0,1,1.0,0,1.0,0,1.0,0,1.0,0,1.0
3103,'U2',25.0,12.1,12.1,-8.3,1.05,0,100.0,0.0,1.0,0.0,0.0,1.0,1,100.0,25.0,3.0,1,1.0,0,1.0,0,1.0,0,1.0,0,1.0
3105,'U1',45.0,21.8,21.8,-15.0,1.05,0,100.0,0.0,1.0,0.0,0.0,1.0,1,100.0,45.0,22.0,1,1.0,0,1.0,0,1.0,0,1.0,0,1.0
3105,'U2',23.224,28.18,33.8,-15.0,1.05,0,100.0,0.0,1.0,0.0,0.0,1.0,1,100.0,45.0,22.0,1,1.0,0,1.0,0,1.0,0,1.0,0,1.0
3107,'G4',73.5,45.6,45.6,-24.5,1.05,0,100.0,0.0,1.0,0.0,0.0,1.0,1,100.0,73.5,20.0,1,1.0,0,1.0,0,1.0,0,1.0,0,1.0
3108,'G3',72.0,44.6,44.6,-24.0,1.05,0,100.0,0.0,1.0,0.0,0.0,1.0,1,100.0,72.0,20.0,1,1.0,0,1.0,0,1.0,0,1.0,0,1.0
3109,'G2',239.4,61.225,148.4,-79.8,1.05,0,100.0,0.0,1.0,0.0,0.0,1.0,1,100.0,239.4,60.0,1,1.0,0,1.0,0,1.0,0,1.0,0,1.0
3110,'G1',147.1,58.735,91.2,-49.0,1.05,0,100.0,0.0,1.0,0.0,0.0,1.0,1,100.0,147.1,40.0,1,1.0,0,1.0,0,1.0,0,1.0,0,1.0
3115,'U1',51.0,13.773,31.6,-17.0,1.05,0,100.0,0.0,1.0,0.0,0.0,1.0,1,100.0,51.0,16.0,1,1.0,0,1.0,0,1.0,0,1.0,0,1.0
3115,'U2',51.0,13.773,31.6,-17.0,1.05,0,100.0,0.0,1.0,0.0,0.0,1.0,1,100.0,51.0,16.0,1,1.0,0,1.0,0,1.0,0,1.0,0,1.0
3115,'U3',51.0,13.773,31.6,-17.0,1.05,0,100.0,0.0,1.0,0.0,0.0,1.0,1,100.0,51.0,16.0,1,1.0,0,1.0,0,1.0,0,1.0,0,1.0
3115,'U4',51.0,13.773,31.6,-17.0,1.05,0,100.0,0.0,1.0,0.0,0.0,1.0,1,100.0,51.0,16.0,1,1.0,0,1.0,0,1.0,0,1.0,0,1.0
3117,'U1',200.0,65.23,123.9,-66.7,1.05,0,100.0,0.0,1.0,0.0,0.0,1.0,1,100.0,200.0,108.0,1,1.0,0,1.0,0,1.0,0,1.0,0,1.0
3120,'PA',100.0,66.112,9900.0,-9900.0,1.02,0,100.0,0.0,1.0,0.0,0.0,1.0,1,100.0,100.0,0.0,1,1.0,0,1.0,0,1.0,0,1.0,0,1.0
3121,'U1',217.6,134.9,134.9,-72.5,1.05,0,100.0,0.0,1.0,0.0,0.0,1.0,1,100.0,217.6,85.0,1,1.0,0,1.0,0,1.0,0,1.0,0,1.0
3121,'U2',0.0,0.0,134.9,-72.5,1.05,0,100.0,0.0,1.0,0.0,0.0,1.0,0,100.0,217.6,85.0,1,1.0,0,1.0,0,1.0,0,1.0,0,1.0
3121,'U3',0.0,0.0,72.0,-32.0,1.05,0,100.0,0.0,1.0,0.0,0.0,1.0,0,100.0,96.0,35.0,1,1.0,0,1.0,0,1.0,0,1.0,0,1.0
3121,'U4',0.0,0.0,72.0,-32.0,1.05,0,100.0,0.0,1.0,0.0,0.0,1.0,0,100.0,96.0,35.0,1,1.0,0,1.0,0,1.0,0,1.0,0,1.0
3123,'10',0.0,0.0,15.32,-8.64,1.05,0,100.0,0.0,1.0,0.0,0.0,1.0,0,100.0,25.93,18.49,1,1.0,0,1.0,0,1.0,0,1.0,0,1.0
3123,'11',0.0,0.0,15.32,-8.64,1.05,0,100.0,0.0,1.0,0.0,0.0,1.0,0,100.0,25.93,18.49,1,1.0,0,1.0,0,1.0,0,1.0,0,1.0
3123,'12',0.0,0.0,15.32,-8.64,1.05,0,100.0,0.0,1.0,0.0,0.0,1.0,0,100.0,25.93,18.49,1,1.0,0,1.0,0,1.0,0,1.0,0,1.0
3123,'13',0.0,0.0,15.32,-8.64,1.05,0,100.0,0.0,1.0,0.0,0.0,1.0,0,100.0,25.93,18.49,1,1.0,0,1.0,0,1.0,0,1.0,0,1.0
3123,'14',0.0,0.0,15.32,-8.64,1.05,0,100.0,0.0,1.0,0.0,0.0,1.0,0,100.0,25.93,18.49,1,1.0,0,1.0,0,1.0,0,1.0,0,1.0
3123,'G1',188.0,70.264,116.5,-62.7,1.05,0,100.0,0.0,1.0,0.0,0.0,1.0,1,100.0,188.0,15.0,1,1.0,0,1.0,0,1.0,0,1.0,0,1.0
3123,'G2',188.0,70.264,116.5,-62.7,1.05,0,100.0,0.0,1.0,0.0,0.0,1.0,1,100.0,188.0,15.0,1,1.0,0,1.0,0,1.0,0,1.0,0,1.0
3123,'G3',0.0,0.0,15.32,-8.64,1.05,0,100.0,0.0,1.0,0.0,0.0,1.0,0,100.0,25.93,18.49,1,1.0,0,1.0,0,1.0,0,1.0,0,1.0
3123,'G4',0.0,0.0,15.32,-8.64,1.05,0,100.0,0.0,1.0,0.0,0.0,1.0,0,100.0,25.93,18.49,1,1.0,0,1.0,0,1.0,0,1.0,0,1.0
3123,'G5',0.0,0.0,15.32,-8.64,1.05,0,100.0,0.0,1.0,0.0,0.0,1.0,0,100.0,25.93,18.49,1,1.0,0,1.0,0,1.0,0,1.0,0,1.0
3123,'G6',0.0,0.0,15.32,-8.64,1.05,0,100.0,0.0,1.0,0.0,0.0,1.0,0,100.0,25.93,18.49,1,1.0,0,1.0,0,1.0,0,1.0,0,1.0
3123,'G7',0.0,0.0,15.32,-8.64,1.05,0,100.0,0.0,1.0,0.0,0.0,1.0,0,100.0,25.93,18.49,1,1.0,0,1.0,0,1.0,0,1.0,0,1.0
3123,'G8',0.0,0.0,15.32,-8.64,1.05,0,100.0,0.0,1.0,0.0,0.0,1.0,0,100.0,25.93,18.49,1,1.0,0,1.0,0,1.0,0,1.0,0,1.0
3123,'G9',0.0,0.0,15.32,-8.64,1.05,0,100.0,0.0,1.0,0.0,0.0,1.0,0,100.0,25.93,18.49,1,1.0,0,1.0,0,1.0,0,1.0,0,1.0
3126,'PA',0.272,92.417,9900.0,-9900.0,1.03,0,100.0,0.0,1.0,0.0,0.0,1.0,1,100.0,100.0,0.0,1,1.0,0,1.0,0,1.0,0,1.0,0,1.0
3130,'U1',200.0,70.54,150.0,-66.7,1.05,0,100.0,0.0,1.0,0.0,0.0,1.0,1,100.0,200.0,65.0,1,1.0,0,1.0,0,1.0,0,1.0,0,1.0
3130,'U2',156.2,70.54,117.2,-52.1,1.05,0,100.0,0.0,1.0,0.0,0.0,1.0,1,100.0,156.2,45.0,1,1.0,0,1.0,0,1.0,0,1.0,0,1.0
3130,'U3',0.0,0.0,111.6,-60.0,1.05,0,100.0,0.0,1.0,0.0,0.0,1.0,0,100.0,180.0,110.0,1,1.0,0,1.0,0,1.0,0,1.0,0,1.0
3130,'U4',0.0,0.0,111.6,-60.0,1.05,0,100.0,0.0,1.0,0.0,0.0,1.0,0,100.0,180.0,110.0,1,1.0,0,1.0,0,1.0,0,1.0,0,1.0
3134,'G3',140.502,32.742,183.3,-98.6,1.05,0,100.0,0.0,1.0,0.0,0.0,1.0,1,100.0,295.7,135.0,1,1.0,0,1.0,0,1.0,0,1.0,0,1.0
3135,'G2',93.331,32.194,110.9,-59.7,1.05,0,100.0,0.0,1.0,0.0,0.0,1.0,1,100.0,179.0,90.0,1,1.0,0,1.0,0,1.0,0,1.0,0,1.0
3136,'G1',178.909,33.462,110.9,-59.7,1.05,0,100.0,0.0,1.0,0.0,0.0,1.0,1,100.0,179.0,90.0,1,1.0,0,1.0,0,1.0,0,1.0,0,1.0
3139,'U1',56.39,22.424,70.4,-37.9,1.05,0,100.0,0.0,1.0,0.0,0.0,1.0,1,100.0,113.6,30.0,1,1.0,0,1.0,0,1.0,0,1.0,0,1.0
3139,'U2',60.0,22.424,37.2,-20.0,1.05,0,100.0,0.0,1.0,0.0,0.0,1.0,1,100.0,60.0,25.0,1,1.0,0,1.0,0,1.0,0,1.0,0,1.0
3139,'U3',60.0,22.424,37.2,-20.0,1.05,0,100.0,0.0,1.0,0.0,0.0,1.0,1,100.0,60.0,25.0,1,1.0,0,1.0,0,1.0,0,1.0,0,1.0
3141,'G2',108.453,115.0,115.0,-61.9,1.05,0,100.0,0.0,1.0,0.0,0.0,1.0,1,100.0,185.6,105.0,1,1.0,0,1.0,0,1.0,0,1.0,0,1.0
3142,'G1',74.359,113.5,113.5,-78.1,1.05,0,100.0,0.0,1.0,0.0,0.0,1.0,1,100.0,234.3,70.0,1,1.0,0,1.0,0,1.0,0,1.0,0,1.0
3143,'G3',108.453,115.0,115.0,-61.9,1.05,0,100.0,0.0,1.0,0.0,0.0,1.0,1,100.0,185.6,105.0,1,1.0,0,1.0,0,1.0,0,1.0,0,1.0
3146,'U1',21.224,18.122,27.9,-15.0,1.05,0,100.0,0.0,1.0,0.0,0.0,1.0,1,100.0,45.0,20.0,1,1.0,0,1.0,0,1.0,0,1.0,0,1.0
3146,'U2',21.224,18.122,27.9,-15.0,1.05,0,100.0,0.0,1.0,0.0,0.0,1.0,1,100.0,45.0,20.0,1,1.0,0,1.0,0,1.0,0,1.0,0,1.0
3146,'U3',21.224,18.122,27.9,-15.0,1.05,0,100.0,0.0,1.0,0.0,0.0,1.0,1,100.0,45.0,20.0,1,1.0,0,1.0,0,1.0,0,1.0,0,1.0
3148,'U1',31.3,10.95,10.95,0.0,1.05,0,100.0,0.0,1.0,0.0,0.0,1.0,1,100.0,31.3,6.0,1,1.0,0,1.0,0,1.0,0,1.0,0,1.0
3151,'U1',24.0,18.0,18.0,-8.0,1.05,0,100.0,0.0,1.0,0.0,0.0,1.0,1,100.0,24.0,1.0,1,1.0,0,1.0,0,1.0,0,1.0,0,1.0
3153,'G2',240.233,105.631,172.7,-92.9,1.05,0,100.0,0.0,1.0,0.0,0.0,1.0,1,100.0,278.6,140.0,1,1.0,0,1.0,0,1.0,0,1.0,0,1.0
3154,'G1',240.233,105.631,172.7,-92.9,1.05,0,100.0,0.0,1.0,0.0,0.0,1.0,1,100.0,278.6,140.0,1,1.0,0,1.0,0,1.0,0,1.0,0,1.0
3155,'G3',246.632,105.877,195.2,-105.0,1.05,0,100.0,0.0,1.0,0.0,0.0,1.0,1,100.0,315.0,75.0,1,1.0,0,1.0,0,1.0,0,1.0,0,1.0
...
0 / END OF GENERATOR DATA BEGIN BRANCH DATA
1,4,'L1',0.000512,0.00384,0.00101,159.0,166.9,174.9,0.0,0.0,0.0,0.0,1,1,0.97,1,1.0,0,1.0,0,1.0,0,1.0
2,86,'L1',0.00126,0.02205,0.2362,1046.0,1098.3,1150.6,0.0,0.0,0.0,0.0,1,1,35.66,1,1.0,0,1.0,0,1.0,0,1.0
3,49,'L1',0.004187,0.0314,0.00983,142.0,149.1,156.2,0.0,0.0,0.0,0.0,1,1,8.68,1,1.0,0,1.0,0,1.0,0,1.0
3,13582,'BT',1e-06,1e-05,0.0,4000.0,4000.0,4000.0,0.0,0.0,0.0,0.0,1,1,0.0,1,1.0,0,1.0,0,1.0,0,1.0
5,8,'L1',0.000353,0.00265,0.0006,142.0,149.1,156.2,0.0,0.0,0.0,0.0,1,1,0.62,1,1.0,0,1.0,0,1.0,0,1.0
6,11,'L1',0.001477,0.01108,0.0025,142.0,149.1,156.2,0.0,0.0,0.0,0.0,1,1,2.6,1,1.0,0,1.0,0,1.0,0,1.0
7,8,'L1',0.000415,0.00311,0.00078,243.0,243.0,243.0,0.0,0.0,0.0,0.0,1,1,0.77,1,1.0,0,1.0,0,1.0,0,1.0
7,8,'L2',0.000415,0.00311,0.00078,243.0,243.0,243.0,0.0,0.0,0.0,0.0,1,1,0.77,1,1.0,0,1.0,0,1.0,0,1.0
7,10,'L1',0.001487,0.01115,0.00272,243.0,243.0,243.0,0.0,0.0,0.0,0.0,1,1,2.72,1,1.0,0,1.0,0,1.0,0,1.0
7,10,'L2',0.001487,0.01115,0.00272,243.0,243.0,243.0,0.0,0.0,0.0,0.0,1,1,2.72,1,1.0,0,1.0,0,1.0,0,1.0
8,9,'L1',0.002077,0.01558,0.00351,159.0,166.9,174.9,0.0,0.0,0.0,0.0,1,1,3.65,1,1.0,0,1.0,0,1.0,0,1.0
9,12,'L1',0.001763,0.01322,0.00329,142.0,149.1,156.2,0.0,0.0,0.0,0.0,1,1,3.26,1,1.0,0,1.0,0,1.0,0,1.0
11,16,'L1',0.002573,0.0193,0.00414,142.0,149.1,156.2,0.0,0.0,0.0,0.0,1,1,4.42,1,1.0,0,1.0,0,1.0,0,1.0
12,13,'L1',0.001609,0.01207,0.00273,118.0,123.9,129.8,0.0,0.0,0.0,0.0,1,1,2.84,1,1.0,0,1.0,0,1.0,0,1.0
12,14,'L1',0.002559,0.01919,0.00432,128.0,134.4,140.8,0.0,0.0,0.0,0.0,1,1,4.5,1,1.0,0,1.0,0,1.0,0,1.0
14,42,'L1',0.004965,0.03724,0.00816,128.0,134.4,140.8,0.0,0.0,0.0,0.0,1,1,8.61,1,1.0,0,1.0,0,1.0,0,1.0
15,16,'L1',0.003947,0.0296,0.00746,159.0,166.9,174.9,0.0,0.0,0.0,0.0,1,1,7.34,1,1.0,0,1.0,0,1.0,0,1.0
17,19,'L1',0.022861,0.17146,0.04168,118.0,123.9,129.8,0.0,0.0,0.0,0.0,1,1,41.77,1,1.0,0,1.0,0,1.0,0,1.0
21,22,'L1',0.016429,0.12322,0.0154,144.0,144.0,144.0,0.0,0.0,0.0,0.0,1,1,21.52,1,1.0,0,1.0,0,1.0,0,1.0
22,110,'L1',0.017235,0.12926,0.03121,128.0,134.4,140.8,0.0,0.0,0.0,0.0,1,1,31.38,1,1.0,0,1.0,0,1.0,0,1.0
23,29,'L1',0.001661,0.01246,0.00339,205.0,215.2,225.5,0.0,0.0,0.0,0.0,1,1,3.21,1,1.0,0,1.0,0,1.0,0,1.0
23,13584,'L1',0.000659,0.00494,0.00134,205.0,215.2,225.5,0.0,0.0,0.0,0.0,1,1,1.27,1,1.0,0,1.0,0,1.0,0,1.0
24,28,'L1',0.000611,0.00458,0.00107,118.0,123.9,129.8,0.0,0.0,0.0,0.0,1,1,1.09,1,1.0,0,1.0,0,1.0,0,1.0
25,26,'L1',0.000903,0.00677,0.00174,128.0,134.4,140.8,0.0,0.0,0.0,0.0,1,1,1.7,1,1.0,0,1.0,0,1.0,0,1.0
26,28,'L1',0.000639,0.00479,0.00115,142.0,149.1,156.2,0.0,0.0,0.0,0.0,1,1,1.16,1,1.0,0,1.0,0,1.0,0,1.0
27,13583,'BT',1e-06,1e-05,0.0,4000.0,4000.0,4000.0,0.0,0.0,0.0,0.0,1,1,0.0,1,1.0,0,1.0,0,1.0,0,1.0
28,13584,'BT',1e-06,1e-05,0.0,4000.0,4000.0,4000.0,0.0,0.0,0.0,0.0,1,1,0.0,1,1.0,0,1.0,0,1.0,0,1.0
29,39,'L1',0.002219,0.01664,0.0038,175.0,183.7,192.5,0.0,0.0,0.0,0.0,1,1,3.93,1,1.0,0,1.0,0,1.0,0,1.0
31,32,'L1',0.001652,0.01239,0.00283,175.0,183.7,192.5,0.0,0.0,0.0,0.0,1,1,2.93,1,1.0,0,1.0,0,1.0,0,1.0
32,33,'L1',0.000887,0.00665,0.0016,219.0,229.9,240.9,0.0,0.0,0.0,0.0,1,1,1.61,1,1.0,0,1.0,0,1.0,0,1.0
35,13586,'L1',0.002451,0.01838,0.00435,159.0,166.9,174.9,0.0,0.0,0.0,0.0,1,1,4.42,1,1.0,0,1.0,0,1.0,0,1.0
36,37,'L1',0.000523,0.00392,0.00099,212.0,212.0,212.0,0.0,0.0,0.0,0.0,1,1,0.97,1,1.0,0,1.0,0,1.0,0,1.0
37,39,'L1',0.000989,0.00742,0.00187,159.0,166.9,174.9,0.0,0.0,0.0,0.0,1,1,1.84,1,1.0,0,1.0,0,1.0,0,1.0
38,36,'L1',0.001307,0.0098,0.00123,144.0,144.0,144.0,0.0,0.0,0.0,0.0,1,1,1.72,1,1.0,0,1.0,0,1.0,0,1.0
40,41,'L1',0.001028,0.00771,0.00192,142.0,149.1,156.2,0.0,0.0,0.0,0.0,1,1,1.9,1,1.0,0,1.0,0,1.0,0,1.0
41,50,'L1',0.004681,0.03511,0.00904,128.0,134.4,140.8,0.0,0.0,0.0,0.0,1,1,8.8,1,1.0,0,1.0,0,1.0,0,1.0
41,138,'L1',0.002761,0.02071,0.00485,118.0,123.9,129.8,0.0,0.0,0.0,0.0,1,1,4.95,1,1.0,0,1.0,0,1.0,0,1.0
42,51,'L1',0.00243,0.02018,0.00789,284.0,298.2,312.4,0.0,0.0,0.0,0.0,1,1,6.24,1,1.0,0,1.0,0,1.0,0,1.0
43,44,'L1',0.001457,0.01093,0.00256,118.0,123.9,129.8,0.0,0.0,0.0,0.0,1,1,2.61,1,1.0,0,1.0,0,1.0,0,1.0
43,45,'L1',0.002071,0.01553,0.00364,118.0,123.9,129.8,0.0,0.0,0.0,0.0,1,1,3.72,1,1.0,0,1.0,0,1.0,0,1.0
44,49,'L1',0.003116,0.02337,0.0053,118.0,123.9,129.8,0.0,0.0,0.0,0.0,1,1,5.5,1,1.0,0,1.0,0,1.0,0,1.0
46,48,'L1',0.001433,0.01075,0.00259,128.0,134.4,140.8,0.0,0.0,0.0,0.0,1,1,2.61,1,1.0,0,1.0,0,1.0,0,1.0
46,118,'L1',0.002204,0.01653,0.00423,175.0,183.7,192.5,0.0,0.0,0.0,0.0,1,1,4.13,1,1.0,0,1.0,0,1.0,0,1.0
46,13585,'BT',1e-06,1e-05,0.0,4000.0,4000.0,4000.0,0.0,0.0,0.0,0.0,1,1,0.0,1,1.0,0,1.0,0,1.0,0,1.0
47,127,'L1',0.00312,0.04326,0.4339,868.0,911.4,954.8,0.0,0.0,0.0,0.0,1,1,67.7,1,1.0,0,1.0,0,1.0,0,1.0
51,52,'L1',0.00128,0.01193,0.00369,284.0,298.2,312.4,0.0,0.0,0.0,0.0,1,1,3.28,1,1.0,0,1.0,0,1.0,0,1.0
53,136,'L1',0.002993,0.02245,0.00556,175.0,183.7,192.5,0.0,0.0,0.0,0.0,1,1,5.52,1,1.0,0,1.0,0,1.0,0,1.0
53,13586,'BT',1e-06,1e-05,0.0,4000.0,4000.0,4000.0,0.0,0.0,0.0,0.0,1,1,0.0,1,1.0,0,1.0,0,1.0,0,1.0
54,407,'L1',0.01999,0.14099,0.24207,366.0,384.3,402.6,0.0,0.0,0.0,0.0,1,1,91.29,1,1.0,0,1.0,0,1.0,0,1.0
56,59,'L1',0.015948,0.11961,0.03081,128.0,134.4,140.8,0.0,0.0,0.0,0.0,1,1,30.0,1,1.0,0,1.0,0,1.0,0,1.0
57,58,'L1',0.003305,0.02479,0.00517,128.0,134.4,140.8,0.0,0.0,0.0,0.0,1,1,5.59,1,1.0,0,1.0,0,1.0,0,1.0
58,101,'L1',0.008715,0.06536,0.01364,128.0,134.4,140.8,0.0,0.0,0.0,0.0,1,1,14.75,1,1.0,0,1.0,0,1.0,0,1.0
61,74,'L1',0.004903,0.03677,0.00855,128.0,134.4,140.8,0.0,0.0,0.0,0.0,1,1,8.76,1,1.0,0,1.0,0,1.0,0,1.0
62,74,'L1',0.003703,0.02777,0.00612,118.0,123.9,129.8,0.0,0.0,0.0,0.0,1,1,6.44,1,1.0,0,1.0,0,1.0,0,1.0
62,131,'L1',0.006931,0.05198,0.01178,118.0,123.9,129.8,0.0,0.0,0.0,0.0,1,1,12.23,1,1.0,0,1.0,0,1.0,0,1.0
63,64,'L1',0.002987,0.0224,0.00524,118.0,123.9,129.8,0.0,0.0,0.0,0.0,1,1,5.35,1,1.0,0,1.0,0,1.0,0,1.0
63,121,'L1',0.004555,0.03416,0.00885,122.0,122.0,122.0,0.0,0.0,0.0,0.0,1,1,8.59,1,1.0,0,1.0,0,1.0,0,1.0
64,65,'L1',0.0027,0.02025,0.00492,118.0,123.9,129.8,0.0,0.0,0.0,0.0,1,1,4.93,1,1.0,0,1.0,0,1.0,0,1.0
65,66,'L1',0.001601,0.01201,0.00265,118.0,123.9,129.8,0.0,0.0,0.0,0.0,1,1,2.79,1,1.0,0,1.0,0,1.0,0,1.0
67,68,'L1',0.000949,0.00712,0.00161,118.0,123.9,129.8,0.0,0.0,0.0,0.0,1,1,1.67,1,1.0,0,1.0,0,1.0,0,1.0
67,125,'L1',0.002756,0.02067,0.00484,118.0,123.9,129.8,0.0,0.0,0.0,0.0,1,1,4.94,1,1.0,0,1.0,0,1.0,0,1.0
68,69,'L1',0.001312,0.00984,0.00205,128.0,134.4,140.8,0.0,0.0,0.0,0.0,1,1,2.22,1,1.0,0,1.0,0,1.0,0,1.0
70,72,'L1',0.002045,0.01534,0.00395,128.0,134.4,140.8,0.0,0.0,0.0,0.0,1,1,3.85,1,1.0,0,1.0,0,1.0,0,1.0
70,130,'L1',0.003984,0.02988,0.00716,142.0,149.1,156.2,0.0,0.0,0.0,0.0,1,1,7.23,1,1.0,0,1.0,0,1.0,0,1.0
71,73,'L1',0.00252,0.0189,0.00476,159.0,166.9,174.9,0.0,0.0,0.0,0.0,1,1,4.69,1,1.0,0,1.0,0,1.0,0,1.0
71,75,'L1',0.00332,0.02612,0.00764,250.0,262.5,275.0,0.0,0.0,0.0,0.0,1,1,6.98,1,1.0,0,1.0,0,1.0,0,1.0
71,128,'L1',0.018035,0.13526,0.03411,159.0,166.9,174.9,0.0,0.0,0.0,0.0,1,1,33.56,1,1.0,0,1.0,0,1.0,0,1.0
72,73,'L1',0.001775,0.01331,0.00342,128.0,134.4,140.8,0.0,0.0,0.0,0.0,1,1,3.33,1,1.0,0,1.0,0,1.0,0,1.0
75,76,'L1',0.003464,0.02598,0.00655,159.0,166.9,174.9,0.0,0.0,0.0,0.0,1,1,6.45,1,1.0,0,1.0,0,1.0,0,1.0
75,79,'L1',0.006659,0.04994,0.01258,159.0,166.9,174.9,0.0,0.0,0.0,0.0,1,1,12.39,1,1.0,0,1.0,0,1.0,0,1.0
76,77,'L1',0.003331,0.02498,0.00699,159.0,166.9,174.9,0.0,0.0,0.0,0.0,1,1,6.53,1,1.0,0,1.0,0,1.0,0,1.0
77,78,'L1',0.003004,0.02253,0.00568,159.0,166.9,174.9,0.0,0.0,0.0,0.0,1,1,5.59,1,1.0,0,1.0,0,1.0,0,1.0
78,117,'L1',0.005099,0.03824,0.00861,159.0,166.9,174.9,0.0,0.0,0.0,0.0,1,1,8.97,1,1.0,0,1.0,0,1.0,0,1.0
79,80,'L1',0.002507,0.0188,0.00474,159.0,166.9,174.9,0.0,0.0,0.0,0.0,1,1,4.66,1,1.0,0,1.0,0,1.0,0,1.0
80,81,'L1',0.002336,0.01752,0.00427,159.0,166.9,174.9,0.0,0.0,0.0,0.0,1,1,4.27,1,1.0,0,1.0,0,1.0,0,1.0
81,82,'L1',0.002041,0.01531,0.004,159.0,166.9,174.9,0.0,0.0,0.0,0.0,1,1,3.87,1,1.0,0,1.0,0,1.0,0,1.0
82,118,'L1',0.005189,0.03892,0.01018,159.0,166.9,174.9,0.0,0.0,0.0,0.0,1,1,9.84,1,1.0,0,1.0,0,1.0,0,1.0
83,84,'L1',0.010699,0.08024,0.01879,118.0,123.9,129.8,0.0,0.0,0.0,0.0,1,1,19.19,1,1.0,0,1.0,0,1.0,0,1.0
83,777,'L1',0.015096,0.11322,0.02549,159.0,166.9,174.9,0.0,0.0,0.0,0.0,1,1,26.55,1,1.0,0,1.0,0,1.0,0,1.0
85,91,'L1',0.010331,0.07748,0.02062,175.0,183.7,192.5,0.0,0.0,0.0,0.0,1,1,19.75,1,1.0,0,1.0,0,1.0,0,1.0
85,13587,'BT',1e-06,1e-05,0.0,4000.0,4000.0,4000.0,0.0,0.0,0.0,0.0,1,1,0.0,1,1.0,0,1.0,0,1.0,0,1.0
87,88,'L1',0.004743,0.03557,0.00763,142.0,149.1,156.2,0.0,0.0,0.0,0.0,1,1,8.14,1,1.0,0,1.0,0,1.0,0,1.0
88,89,'L1',0.004621,0.03466,0.00907,159.0,166.9,174.9,0.0,0.0,0.0,0.0,1,1,8.76,1,1.0,0,1.0,0,1.0,0,1.0
89,90,'L1',0.003141,0.02356,0.00593,159.0,166.9,174.9,0.0,0.0,0.0,0.0,1,1,5.84,1,1.0,0,1.0,0,1.0,0,1.0
90,91,'L1',0.003225,0.02419,0.00633,159.0,166.9,174.9,0.0,0.0,0.0,0.0,1,1,6.11,1,1.0,0,1.0,0,1.0,0,1.0
92,93,'L1',0.0009,0.00675,0.0017,277.0,277.0,277.0,0.0,0.0,0.0,0.0,1,1,1.67,1,1.0,0,1.0,0,1.0,0,1.0
92,94,'L1',0.000465,0.00349,0.00088,177.0,211.0,211.0,0.0,0.0,0.0,0.0,1,1,0.87,1,1.0,0,1.0,0,1.0,0,1.0
93,111,'L1',0.001464,0.01098,0.00247,142.0,149.1,156.2,0.0,0.0,0.0,0.0,1,1,2.57,1,1.0,0,1.0,0,1.0,0,1.0
94,95,'L1',0.000412,0.00309,0.00078,177.0,211.0,211.0,0.0,0.0,0.0,0.0,1,1,0.77,1,1.0,0,1.0,0,1.0,0,1.0
95,97,'L1',0.000813,0.0061,0.00154,177.0,211.0,211.0,0.0,0.0,0.0,0.0,1,1,1.51,1,1.0,0,1.0,0,1.0,0,1.0
96,13588,'BT',1e-06,1e-05,0.0,4000.0,4000.0,4000.0,0.0,0.0,0.0,0.0,1,1,0.0,1,1.0,0,1.0,0,1.0,0,1.0
97,102,'L1',0.002505,0.01879,0.00499,142.0,149.1,156.2,0.0,0.0,0.0,0.0,1,1,4.78,1,1.0,0,1.0,0,1.0,0,1.0
97,13589,'BT',1e-06,1e-05,0.0,4000.0,4000.0,4000.0,0.0,0.0,0.0,0.0,1,1,0.0,1,1.0,0,1.0,0,1.0,0,1.0
98,121,'L1',0.014508,0.10881,0.02849,159.0,166.9,174.9,0.0,0.0,0.0,0.0,1,1,27.51,1,1.0,0,1.0,0,1.0,0,1.0
99,100,'L1',0.004295,0.03221,0.00844,219.0,229.9,240.9,0.0,0.0,0.0,0.0,1,1,8.15,1,1.0,0,1.0,0,1.0,0,1.0
102,103,'L1',0.003619,0.02714,0.00594,128.0,134.4,140.8,0.0,0.0,0.0,0.0,1,1,6.27,1,1.0,0,1.0,0,1.0,0,1.0
103,104,'L1',0.004685,0.03514,0.00865,128.0,134.4,140.8,0.0,0.0,0.0,0.0,1,1,8.61,1,1.0,0,1.0,0,1.0,0,1.0
104,132,'L1',0.005247,0.03935,0.00892,118.0,123.9,129.8,0.0,0.0,0.0,0.0,1,1,9.26,1,1.0,0,1.0,0,1.0,0,1.0
105,112,'L1',0.007159,0.05369,0.01257,118.0,123.9,129.8,0.0,0.0,0.0,0.0,1,1,12.84,1,1.0,0,1.0,0,1.0,0,1.0
105,114,'L1',0.005807,0.04355,0.01019,118.0,123.9,129.8,0.0,0.0,0.0,0.0,1,1,10.41,1,1.0,0,1.0,0,1.0,0,1.0
105,119,'L1',0.004319,0.03239,0.0073,128.0,134.4,140.8,0.0,0.0,0.0,0.0,1,1,7.6,1,1.0,0,1.0,0,1.0,0,1.0
106,112,'L1',0.003656,0.02742,0.00604,118.0,123.9,129.8,0.0,0.0,0.0,0.0,1,1,6.36,1,1.0,0,1.0,0,1.0,0,1.0
108,113,'L1',0.017371,0.13028,0.02955,118.0,123.9,129.8,0.0,0.0,0.0,0.0,1,1,30.66,1,1.0,0,1.0,0,1.0,0,1.0
108,13884,'L1',0.013045,0.09784,0.01223,144.0,144.0,144.0,0.0,0.0,0.0,0.0,1,1,17.09,1,1.0,0,1.0,0,1.0,0,1.0
113,13884,'L1',0.026943,0.20207,0.02526,144.0,144.0,144.0,0.0,0.0,0.0,0.0,1,1,35.3,1,1.0,0,1.0,0,1.0,0,1.0
115,116,'L1',0.005595,0.04196,0.01018,118.0,123.9,129.8,0.0,0.0,0.0,0.0,1,1,10.21,1,1.0,0,1.0,0,1.0,0,1.0
119,120,'L1',0.005023,0.03767,0.00914,118.0,123.9,129.8,0.0,0.0,0.0,0.0,1,1,9.17,1,1.0,0,1.0,0,1.0,0,1.0
120,123,'L1',0.005153,0.03865,0.00905,118.0,123.9,129.8,0.0,0.0,0.0,0.0,1,1,9.24,1,1.0,0,1.0,0,1.0,0,1.0
122,123,'L1',0.005597,0.04198,0.00525,144.0,144.0,144.0,0.0,0.0,0.0,0.0,1,1,7.34,1,1.0,0,1.0,0,1.0,0,1.0
122,126,'L1',0.004043,0.03032,0.00736,118.0,123.9,129.8,0.0,0.0,0.0,0.0,1,1,7.38,1,1.0,0,1.0,0,1.0,0,1.0
123,124,'L1',0.001972,0.01479,0.00451,118.0,123.9,129.8,0.0,0.0,0.0,0.0,1,1,4.04,1,1.0,0,1.0,0,1.0,0,1.0
126,124,'L1',0.005409,0.04057,0.00507,144.0,144.0,144.0,0.0,0.0,0.0,0.0,1,1,7.09,1,1.0,0,1.0,0,1.0,0,1.0
128,129,'L1',0.005329,0.03997,0.01068,159.0,166.9,174.9,0.0,0.0,0.0,0.0,1,1,10.21,1,1.0,0,1.0,0,1.0,0,1.0
128,13590,'BT',1e-06,1e-05,0.0,4000.0,4000.0,4000.0,0.0,0.0,0.0,0.0,1,1,0.0,1,1.0,0,1.0,0,1.0,0,1.0
129,130,'L1',0.004391,0.03293,0.00742,142.0,149.1,156.2,0.0,0.0,0.0,0.0,1,1,7.72,1,1.0,0,1.0,0,1.0,0,1.0
131,132,'L1',0.008569,0.06427,0.01505,118.0,123.9,129.8,0.0,0.0,0.0,0.0,1,1,15.37,1,1.0,0,1.0,0,1.0,0,1.0
134,3202,'L1',0.015567,0.11675,0.01459,144.0,144.0,144.0,0.0,0.0,0.0,0.0,1,1,20.39,1,1.0,0,1.0,0,1.0,0,1.0
136,137,'L1',0.001208,0.00906,0.00263,185.0,194.2,203.5,0.0,0.0,0.0,0.0,1,1,2.41,1,1.0,0,1.0,0,1.0,0,1.0
137,142,'L1',0.001595,0.01196,0.00282,193.0,202.6,212.3,0.0,0.0,0.0,0.0,1,1,2.87,1,1.0,0,1.0,0,1.0,0,1.0
137,143,'L1',0.000776,0.00582,0.00147,159.0,166.9,174.9,0.0,0.0,0.0,0.0,1,1,1.45,1,1.0,0,1.0,0,1.0,0,1.0
...